geometry optimzed in LAMMPS
_audit_creation_date              2020-11-30 
_audit_creation_method            'lammps2cif' 
_symmetry_space_group_name_H-M    'P1' 
_symmetry_Int_Tables_number       1 
_symmetry_cell_setting            triclinic 
loop_ 
_symmetry_equiv_pos_as_xyz 
  x,y,z 
_cell_length_a                    49.42781682240864 
_cell_length_b                    49.38270427071465 
_cell_length_c                    32.12653754989748 
_cell_angle_alpha                 90.38669737520664 
_cell_angle_beta                  89.74168105226249 
_cell_angle_gamma                 89.30509109016539 
loop_ 
_atom_site_label 
_atom_site_type_symbol 
_atom_site_fract_x 
_atom_site_fract_y 
_atom_site_fract_z 
_atom_site_charge 
In1        In  0.41194031  0.43265842  0.14109163     1.36870
C2          C  0.40822827  0.42944320  0.22356836     0.77290
O3          O  0.45071633  0.41022279  0.15455745    -0.61160
O4          O  0.45076953  0.44023615  0.10732251    -0.52070
C5          C  0.38225277  0.40275697  0.08975476     0.69950
O6          O  0.37382538  0.42474613  0.10526125    -0.46930
C7          C  0.40336952  0.48511950  0.12933172     0.74660
O8          O  0.39405300  0.41445393  0.20049076    -0.58790
O9          O  0.41966083  0.47132238  0.10730981    -0.48880
O10         O  0.42362379  0.44513803  0.20442305    -0.55220
C11         C  0.46435443  0.42400339  0.12925793     0.84840
O12         O  0.40522443  0.39526000  0.10212691    -0.57110
O13         O  0.38941151  0.47164805  0.15457636    -0.60410
In14       In  0.41057025  0.43361629  0.35169807     1.36870
C15         C  0.40784997  0.42972066  0.26912656     0.77290
O16         O  0.38839308  0.47250659  0.33795045    -0.61160
O17         O  0.41790169  0.47254337  0.38593434    -0.52070
C18         C  0.38062179  0.40367403  0.40262175     0.69950
O19         O  0.40346437  0.39611959  0.38932962    -0.46930
C20         C  0.46295671  0.42496049  0.36346575     0.74660
O21         O  0.39315824  0.41515443  0.29197088    -0.58790
O22         O  0.44930589  0.44148772  0.38532567    -0.48880
O23         O  0.42306764  0.44550753  0.28852949    -0.55220
C24         C  0.40203739  0.48618465  0.36345567     0.84840
O25         O  0.37233123  0.42589024  0.38825955    -0.57110
O26         O  0.44937975  0.41091351  0.33836217    -0.60410
In27       In  0.34133705  0.36317599  0.49656223     1.36870
C28         C  0.36715708  0.38790799  0.05813061     0.77290
O29         O  0.33993090  0.32414384  0.03177024    -0.61160
O30         O  0.34795956  0.32218876  0.46710427    -0.52070
C31         C  0.28753788  0.36782693  0.49560484     0.69950
O32         O  0.30151377  0.37194751  0.02762155    -0.46930
C33         C  0.36575205  0.38854544  0.43417475     0.74660
O34         O  0.34501354  0.39651331  0.04388980    -0.58790
O35         O  0.37503201  0.36713936  0.44998855    -0.48880
O36         O  0.37584027  0.36624249  0.04171048    -0.55220
C37         C  0.34447482  0.30931779  0.00040602     0.84840
O38         O  0.30136912  0.36151017  0.46377502    -0.57110
O39         O  0.34344259  0.39656009  0.44914044    -0.60410
In40       In  0.41124432  0.06724196  0.13967728     1.36870
C41         C  0.40788430  0.06996502  0.22204079     0.77290
O42         O  0.38900697  0.02887740  0.15393110    -0.61160
O43         O  0.41999416  0.02781917  0.10760594    -0.52070
C44         C  0.37973864  0.09685612  0.09014922     0.69950
O45         O  0.39739280  0.10732194  0.11306444    -0.46930
C46         C  0.46331350  0.07675503  0.12623039     0.74660
O47         O  0.39171738  0.08337593  0.19956113    -0.58790
O48         O  0.44995445  0.06081687  0.10378243    -0.48880
O49         O  0.42470740  0.05548326  0.20238650    -0.55220
C50         C  0.40337335  0.01473119  0.12926171     0.84840
O51         O  0.37742110  0.07170235  0.09396095    -0.57110
O52         O  0.44944655  0.09022115  0.15219416    -0.60410
In53       In  0.41147899  0.06787032  0.34983832     1.36870
C54         C  0.40811218  0.07030123  0.26749280     0.77290
O55         O  0.45023691  0.08958794  0.33623332    -0.61160
O56         O  0.45027749  0.05969790  0.38362177    -0.52070
C57         C  0.38103126  0.09946402  0.39915246     0.69950
O58         O  0.37297368  0.07727217  0.38474977    -0.46930
C59         C  0.40232248  0.01579730  0.36292996     0.74660
O60         O  0.39313558  0.08509737  0.29035680    -0.58790
O61         O  0.41814615  0.02935772  0.38533600    -0.48880
O62         O  0.42423083  0.05512694  0.28675245    -0.55220
C63         C  0.46386662  0.07570406  0.36164563     0.84840
O64         O  0.40413533  0.10625408  0.38682290    -0.57110
O65         O  0.38922749  0.02938362  0.33658245    -0.60410
In66       In  0.34136491  0.13809395  0.49584284     1.36870
C67         C  0.36444785  0.11209690  0.05914594     0.77290
O68         O  0.30175326  0.13200382  0.02816511    -0.61160
O69         O  0.30187681  0.13615732  0.46245559    -0.52070
C70         C  0.34568958  0.19206337  0.49618451     0.69950
O71         O  0.36557534  0.17644215  0.98925617    -0.46930
C72         C  0.36566965  0.11489107  0.43042802     0.74660
O73         O  0.36521173  0.13743688  0.05591312    -0.58790
O74         O  0.34344897  0.10690616  0.44467078    -0.48880
O75         O  0.35069389  0.10046587  0.03178012    -0.55220
C76         C  0.28800818  0.13272162  0.99503256     0.84840
O77         O  0.32382126  0.18000707  0.50269347    -0.57110
O78         O  0.37452125  0.13598503  0.44745893    -0.60410
In79       In  0.04609628  0.43255507  0.14115024     1.36870
C80         C  0.04909353  0.42919436  0.22368846     0.77290
O81         O  0.06805219  0.47136898  0.15389606    -0.61160
O82         O  0.03743806  0.47125262  0.10755067    -0.52070
C83         C  0.07662508  0.40239834  0.08982322     0.69950
O84         O  0.05450297  0.39438880  0.10441144    -0.46930
C85         C  0.99391746  0.42395598  0.12922452     0.74660
O86         O  0.06382746  0.41424316  0.20065324    -0.58790
O87         O  0.00730791  0.44002007  0.10710768    -0.48880
O88         O  0.03383845  0.44526001  0.20448770    -0.55220
C89         C  0.05378408  0.48491670  0.12886257     0.84840
O90         O  0.08394148  0.42513651  0.10318459    -0.57110
O91         O  0.00769143  0.41027267  0.15465909    -0.60410
In92       In  0.04495550  0.43242296  0.35181012     1.36870
C93         C  0.04865952  0.42896636  0.26925176     0.77290
O94         O  0.00640330  0.41034324  0.33851053    -0.61160
O95         O  0.50589771  0.44124559  0.38502562    -0.52070
C96         C  0.07477447  0.40235199  0.40319428     0.69950
O97         O  0.08310239  0.42403442  0.38770651    -0.46930
C98         C  0.05395943  0.48465602  0.36350468     0.74660
O99         O  0.06282756  0.41366586  0.29209062    -0.58790
O100        O  0.03746021  0.47168379  0.38553335    -0.48880
O101        O  0.03319392  0.44500111  0.28865722    -0.55220
C102        C  0.49254181  0.42475715  0.36342298     0.84840
O103        O  0.05182095  0.39523675  0.39083527    -0.57110
O104        O  0.06782286  0.47042962  0.33841021    -0.60410
In105      In  0.11645687  0.36181879  0.49488607     1.36870
C106        C  0.09174019  0.38723502  0.05790851     0.77290
O107        O  0.15698286  0.36467493  0.02645170    -0.61160
O108        O  0.15575195  0.36488117  0.46069496    -0.52070
C109        C  0.11278223  0.30788420  0.49148261     0.69950
O110        O  0.11424261  0.32105630  0.02522392    -0.46930
C111        C  0.09002542  0.38733746  0.43457280     0.74660
O112        O  0.08389246  0.36484270  0.04375028    -0.58790
O113        O  0.11259680  0.39506376  0.44786528    -0.48880
O114        O  0.11278710  0.39622090  0.04093462    -0.55220
C115        C  0.17021058  0.36553451  0.99281559     0.84840
O116        O  0.11321871  0.32261759  0.45969762    -0.57110
O117        O  0.08113964  0.36630180  0.45152835    -0.60410
In118      In  0.04514852  0.06719024  0.13932217     1.36870
C119        C  0.04870227  0.07041088  0.22198854     0.77290
O120        O  0.00635016  0.08996357  0.15255505    -0.61160
O121        O  0.50665959  0.06025013  0.10433452    -0.52070
C122        C  0.07547607  0.09643973  0.08798884     0.69950
O123        O  0.08264417  0.07342904  0.10064110    -0.46930
C124        C  0.05358730  0.01453519  0.12831680     0.74660
O125        O  0.06323979  0.08506059  0.19902957    -0.58790
O126        O  0.03687880  0.02788749  0.10686588    -0.48880
O127        O  0.03294063  0.05512332  0.20265804    -0.55220
C128        C  0.49291139  0.07651681  0.12650321     0.84840
O129        O  0.05355283  0.10518328  0.10320956    -0.57110
O130        O  0.06787791  0.02849524  0.15256401    -0.60410
In131      In  0.04599402  0.06662694  0.35027843     1.36870
C132        C  0.04910916  0.07006582  0.26759612     0.77290
O133        O  0.06807616  0.02739222  0.33723015    -0.61160
O134        O  0.03814487  0.02832822  0.38501855    -0.52070
C135        C  0.07623690  0.09635061  0.40133850     0.69950
O136        O  0.05330881  0.10399190  0.38895081    -0.46930
C137        C  0.99347633  0.07549565  0.36186200     0.74660
O138        O  0.06338349  0.08502245  0.29057545    -0.58790
O139        O  0.00694009  0.05914002  0.38374953    -0.48880
O140        O  0.03424575  0.05395105  0.28691037    -0.55220
C141        C  0.05421413  0.01424603  0.36304092     0.84840
O142        O  0.08442480  0.07423275  0.38595748    -0.57110
O143        O  0.00729402  0.08933463  0.33689160    -0.60410
In144      In  0.11647256  0.13622096  0.49524033     1.36870
C145        C  0.09069829  0.11119678  0.05644013     0.77290
O146        O  0.11227463  0.17636420  0.02785467    -0.61160
O147        O  0.11408271  0.17619136  0.46226038    -0.52070
C148        C  0.17040738  0.13230670  0.49850095     0.69950
O149        O  0.15547722  0.13325409  0.03031390    -0.46930
C150        C  0.09138081  0.11124612  0.43296736     0.74660
O151        O  0.11208573  0.10187154  0.04005924    -0.58790
O152        O  0.08250979  0.13283231  0.44934830    -0.48880
O153        O  0.08280012  0.13364306  0.04228598    -0.55220
C154        C  0.11189574  0.19025050  0.99515778     0.84840
O155        O  0.15746196  0.13326992  0.46476886    -0.57110
O156        O  0.11357605  0.10282984  0.44738700    -0.60410
C157        C  0.10419903  0.26471914  0.02749682    -0.06070
C158        C  0.11075229  0.27777370  0.49013452    -0.00150
C159        C  0.11536236  0.26187005  0.45364986    -0.08720
C160        C  0.11538561  0.23345438  0.45701866    -0.06100
C161        C  0.11007715  0.22033840  0.49482752    -0.00160
C162        C  0.10311247  0.23633257  0.03044404    -0.08630
C163        C  0.09420660  0.22384353  0.07133995     0.61750
H164        H  0.09994077  0.27700263  0.05480320     0.12440
H165        H  0.11986935  0.22115256  0.42982416     0.12460
C166        C  0.12042652  0.27438948  0.41124877     0.61980
F167        F  0.08519227  0.24323522  0.09965872    -0.23180
F168        F  0.11565556  0.21004161  0.08922403    -0.20510
F169        F  0.07308268  0.20627092  0.06431981    -0.20190
F170        F  0.14333092  0.29012002  0.41256817    -0.20240
F171        F  0.09834709  0.29013579  0.39997412    -0.20560
F172        F  0.12433386  0.25497404  0.38043843    -0.23240
C173        C  0.24439770  0.13649334  0.03285598    -0.06070
C174        C  0.25796273  0.13052664  0.49526158    -0.00150
C175        C  0.24260715  0.12351793  0.45960930    -0.08720
C176        C  0.21418700  0.12398197  0.46261119    -0.06100
C177        C  0.20054769  0.13070553  0.49983357    -0.00160
C178        C  0.21597551  0.13667451  0.03604058    -0.08630
C179        C  0.20291120  0.14334474  0.07788188     0.61750
H180        H  0.25636224  0.14139538  0.05994356     0.12440
H181        H  0.20229144  0.11925141  0.43537982     0.12460
C182        C  0.25582363  0.11517132  0.41859765     0.61980
F183        F  0.22189969  0.14880937  0.10827051    -0.23180
F184        F  0.18791390  0.12156678  0.09126005    -0.20510
F185        F  0.18634859  0.16598551  0.07430322    -0.20190
F186        F  0.27453146  0.09460187  0.42528629    -0.20240
F187        F  0.26851253  0.13714482  0.40101168    -0.20560
F188        F  0.23712913  0.10570847  0.39019069    -0.23240
C189        C  0.24435031  0.35625443  0.46190891    -0.06070
C190        C  0.25742768  0.36916057  0.49516709    -0.00150
C191        C  0.24153575  0.38224025  0.02658078    -0.08720
C192        C  0.21313550  0.38063459  0.02430934    -0.06100
C193        C  0.20017314  0.36715696  0.49150511    -0.00160
C194        C  0.21601801  0.35502898  0.45934166    -0.08630
C195        C  0.20332937  0.33989621  0.42317934     0.61750
H196        H  0.25660753  0.34659893  0.43797461     0.12440
H197        H  0.20069739  0.39000271  0.04832995     0.12460
C198        C  0.25410459  0.39827736  0.06197414     0.61980
F199        F  0.22255250  0.32733418  0.39795456    -0.23180
F200        F  0.18872923  0.35776107  0.39877936    -0.20510
F201        F  0.18643466  0.32009665  0.43826313    -0.20190
F202        F  0.27150274  0.41738670  0.04601653    -0.20240
F203        F  0.26812910  0.38101819  0.08809538    -0.20560
F204        F  0.23476000  0.41188516  0.08570009    -0.23240
C205        C  0.36343686  0.26572385  0.47450988    -0.06070
C206        C  0.34560194  0.27929817  0.50196086    -0.00150
C207        C  0.32864657  0.26402383  0.02839965    -0.08720
C208        C  0.32973001  0.23562579  0.02547014    -0.06100
C209        C  0.34738718  0.22201847  0.49789800    -0.00160
C210        C  0.36494266  0.23723888  0.47230199    -0.08630
C211        C  0.38460586  0.22369458  0.44198944     0.61750
H212        H  0.37635760  0.27773670  0.45476208     0.12440
H213        H  0.31668802  0.22365077  0.04507669     0.12460
C214        C  0.30892048  0.27738286  0.05885749     0.61980
F215        F  0.39811675  0.24238570  0.41788791    -0.23180
F216        F  0.37075929  0.20663228  0.41546942    -0.20510
F217        F  0.40378570  0.20895126  0.46371714    -0.20190
F218        F  0.29212479  0.29529347  0.03803158    -0.20240
F219        F  0.32308458  0.29110531  0.08925885    -0.20560
F220        F  0.29274110  0.25864153  0.07855125    -0.23240
In221      In  0.41193929  0.43265953  0.64108978     1.36870
C222        C  0.40822811  0.42944395  0.72356643     0.77290
O223        O  0.45071482  0.41022321  0.65455621    -0.61160
O224        O  0.45076959  0.44023657  0.60732140    -0.52070
C225        C  0.38225239  0.40275583  0.58975296     0.69950
O226        O  0.37382443  0.42474495  0.60525891    -0.46930
C227        C  0.40336380  0.48512071  0.62933348     0.74660
O228        O  0.39405274  0.41445466  0.70048902    -0.58790
O229        O  0.41965778  0.47132595  0.60731254    -0.48880
O230        O  0.42362339  0.44513896  0.70442100    -0.55220
C231        C  0.46435368  0.42400259  0.62925615     0.84840
O232        O  0.40522477  0.39526061  0.60212431    -0.57110
O233        O  0.38940624  0.47164689  0.65457551    -0.60410
In234      In  0.41057084  0.43361732  0.85169553     1.36870
C235        C  0.40785015  0.42972129  0.76912453     0.77290
O236        O  0.38839676  0.47250954  0.83794796    -0.61160
O237        O  0.41790426  0.47254292  0.88593350    -0.52070
C238        C  0.38062220  0.40367695  0.90261909     0.69950
O239        O  0.40346439  0.39612137  0.88932686    -0.46930
C240        C  0.46295681  0.42496204  0.86346374     0.74660
O241        O  0.39315802  0.41515557  0.79196899    -0.58790
O242        O  0.44930552  0.44148848  0.88532421    -0.48880
O243        O  0.42306842  0.44550772  0.78852714    -0.55220
C244        C  0.40204191  0.48618596  0.86345428     0.84840
O245        O  0.37233180  0.42589301  0.88825624    -0.57110
O246        O  0.44938034  0.41091438  0.83836035    -0.60410
In247      In  0.34133887  0.36318217  0.99656038     1.36870
C248        C  0.36715627  0.38790475  0.55813086     0.77290
O249        O  0.33992445  0.32413504  0.53177164    -0.61160
O250        O  0.34796333  0.32219760  0.96710090    -0.52070
C251        C  0.28754098  0.36782891  0.99560464     0.69950
O252        O  0.30151071  0.37194493  0.52762210    -0.46930
C253        C  0.36575292  0.38854984  0.93417324     0.74660
O254        O  0.34501136  0.39650780  0.54389210    -0.58790
O255        O  0.37503295  0.36714394  0.94998726    -0.48880
O256        O  0.37583999  0.36623936  0.54171084    -0.55220
C257        C  0.34446635  0.30930805  0.50040755     0.84840
O258        O  0.30137161  0.36151272  0.96377411    -0.57110
O259        O  0.34344411  0.39656580  0.94913976    -0.60410
In260      In  0.41122938  0.06724393  0.63968372     1.36870
C261        C  0.40787621  0.06996536  0.72204815     0.77290
O262        O  0.38899350  0.02887723  0.65393179    -0.61160
O263        O  0.41998570  0.02782249  0.60761397    -0.52070
C264        C  0.37972775  0.09685136  0.59014313     0.69950
O265        O  0.39737011  0.10732368  0.61307306    -0.46930
C266        C  0.46329628  0.07675807  0.62624392     0.74660
O267        O  0.39170414  0.08337340  0.69957258    -0.58790
O268        O  0.44993968  0.06081783  0.60379635    -0.48880
O269        O  0.42469820  0.05548506  0.70238928    -0.55220
C270        C  0.40336403  0.01473261  0.62926528     0.84840
O271        O  0.37741834  0.07169662  0.59395066    -0.57110
O272        O  0.44942725  0.09022910  0.65219888    -0.60410
In273      In  0.41148938  0.06787232  0.84984698     1.36870
C274        C  0.40811183  0.07030339  0.76750059     0.77290
O275        O  0.45025184  0.08958604  0.83624500    -0.61160
O276        O  0.45028849  0.05969905  0.88363594    -0.52070
C277        C  0.38104101  0.09946612  0.89916663     0.69950
O278        O  0.37299014  0.07726600  0.88478517    -0.46930
C279        C  0.40233015  0.01579860  0.86293018     0.74660
O280        O  0.39313680  0.08509779  0.79036954    -0.58790
O281        O  0.41815514  0.02935674  0.88533734    -0.48880
O282        O  0.42423612  0.05513241  0.78675557    -0.55220
C283        C  0.46387996  0.07570474  0.86166264     0.84840
O284        O  0.40413792  0.10626320  0.88681388    -0.57110
O285        O  0.38923623  0.02938715  0.83658414    -0.60410
In286      In  0.34139049  0.13811910  0.99585702     1.36870
C287        C  0.36443952  0.11208431  0.55912927     0.77290
O288        O  0.30175357  0.13189711  0.52817469    -0.61160
O289        O  0.30190671  0.13626769  0.96244751    -0.52070
C290        C  0.34574283  0.19208058  0.99622039     0.69950
O291        O  0.36552464  0.17642896  0.48922361    -0.46930
C292        C  0.36568127  0.11489686  0.93044293     0.74660
O293        O  0.36515964  0.13742811  0.55592926    -0.58790
O294        O  0.34347486  0.10690050  0.94472540    -0.48880
O295        O  0.35072797  0.10044213  0.53172492    -0.55220
C296        C  0.28799915  0.13256640  0.49504913     0.84840
O297        O  0.32387222  0.18003160  0.00273040    -0.57110
O298        O  0.37452248  0.13600931  0.94743314    -0.60410
In299      In  0.04609663  0.43254601  0.64114351     1.36870
C300        C  0.04909317  0.42919121  0.72368312     0.77290
O301        O  0.06805028  0.47136096  0.65389392    -0.61160
O302        O  0.03743306  0.47124538  0.60755320    -0.52070
C303        C  0.07662215  0.40237953  0.58981756     0.69950
O304        O  0.05449949  0.39437509  0.60441067    -0.46930
C305        C  0.99391694  0.42395152  0.62922069     0.74660
O306        O  0.06382898  0.41423978  0.70065095    -0.58790
O307        O  0.00730902  0.44001155  0.60709902    -0.48880
O308        O  0.03383584  0.44525254  0.70447889    -0.55220
C309        C  0.05377593  0.48490987  0.62887017     0.84840
O310        O  0.08394036  0.42511957  0.60317059    -0.57110
O311        O  0.00768983  0.41026867  0.65465747    -0.60410
In312      In  0.04495454  0.43243191  0.85180306     1.36870
C313        C  0.04865964  0.42896872  0.76924645     0.77290
O314        O  0.00640407  0.41034730  0.83850839    -0.61160
O315        O  0.50589632  0.44125305  0.88501779    -0.52070
C316        C  0.07477746  0.40237170  0.90318841     0.69950
O317        O  0.08310312  0.42405214  0.88769259    -0.46930
C318        C  0.05396410  0.48466348  0.86351039     0.74660
O319        O  0.06282574  0.41366861  0.79208855    -0.58790
O320        O  0.03746208  0.47169086  0.88553360    -0.48880
O321        O  0.03319620  0.44500779  0.78864823    -0.55220
C322        C  0.49254174  0.42476139  0.86341925     0.84840
O323        O  0.05182471  0.39525085  0.89083371    -0.57110
O324        O  0.06782273  0.47043868  0.83840758    -0.60410
In325      In  0.11646262  0.36185802  0.99488509     1.36870
C326        C  0.09173601  0.38720768  0.55790751     0.77290
O327        O  0.15697778  0.36464816  0.52645525    -0.61160
O328        O  0.15575759  0.36490309  0.96069097    -0.52070
C329        C  0.11276176  0.30793561  0.99148092     0.69950
O330        O  0.11424072  0.32100937  0.52522457    -0.46930
C331        C  0.09002976  0.38736607  0.93457179     0.74660
O332        O  0.08388129  0.36481816  0.54374687    -0.58790
O333        O  0.11259686  0.39510216  0.94786901    -0.48880
O334        O  0.11278975  0.39618281  0.54094035    -0.55220
C335        C  0.17020536  0.36551539  0.49281925     0.84840
O336        O  0.11319937  0.32266726  0.95969471    -0.57110
O337        O  0.08114845  0.36632875  0.95152689    -0.60410
In338      In  0.04512716  0.06718366  0.63935454     1.36870
C339        C  0.04869639  0.07041015  0.72201945     0.77290
O340        O  0.00633122  0.08996353  0.65257844    -0.61160
O341        O  0.50664007  0.06024110  0.60437014    -0.52070
C342        C  0.07545393  0.09641265  0.58799845     0.69950
O343        O  0.08261929  0.07340729  0.60067495    -0.46930
C344        C  0.05356883  0.01452856  0.62834058     0.74660
O345        O  0.06322709  0.08506031  0.69905100    -0.58790
O346        O  0.03685186  0.02787999  0.60690415    -0.48880
O347        O  0.03293036  0.05512144  0.70269887    -0.55220
C348        C  0.49289315  0.07651485  0.62652781     0.84840
O349        O  0.05353238  0.10516703  0.60321109    -0.57110
O350        O  0.06786027  0.02848862  0.65258635    -0.60410
In351      In  0.04601194  0.06663551  0.85031335     1.36870
C352        C  0.04911540  0.07006621  0.76762730     0.77290
O353        O  0.06809268  0.02740143  0.83725719    -0.61160
O354        O  0.03816269  0.02833547  0.88504902    -0.52070
C355        C  0.07625442  0.09637583  0.90136347     0.69950
O356        O  0.05333407  0.10401746  0.88894299    -0.46930
C357        C  0.99349068  0.07550047  0.86188950     0.74660
O358        O  0.06339720  0.08502136  0.79059803    -0.58790
O359        O  0.00695538  0.05915108  0.88378704    -0.48880
O360        O  0.03425482  0.05395418  0.78695131    -0.55220
C361        C  0.05422765  0.01425364  0.86306275     0.84840
O362        O  0.08443700  0.07424345  0.88602452    -0.57110
O363        O  0.00730939  0.08933775  0.83691867    -0.60410
In364      In  0.11644678  0.13631361  0.99524809     1.36870
C365        C  0.09068291  0.11114843  0.55643546     0.77290
O366        O  0.11239090  0.17628769  0.52785263    -0.61160
O367        O  0.11395053  0.17626366  0.96225609    -0.52070
C368        C  0.17039817  0.13258756  0.99847952     0.69950
O369        O  0.15547682  0.13297252  0.53032533    -0.46930
C370        C  0.09139130  0.11129145  0.93298249     0.74660
O371        O  0.11206105  0.10179777  0.54006266    -0.58790
O372        O  0.08252011  0.13289700  0.94930377    -0.48880
O373        O  0.08280632  0.13359752  0.54226351    -0.55220
C374        C  0.11203060  0.19017945  0.49516060     0.84840
O375        O  0.15743546  0.13345681  0.96475746    -0.57110
O376        O  0.11357498  0.10287877  0.94745343    -0.60410
C377        C  0.10426310  0.26465131  0.52749485    -0.06070
C378        C  0.11069840  0.27783183  0.99013288    -0.00150
C379        C  0.11528670  0.26192594  0.95364558    -0.08720
C380        C  0.11525922  0.23351291  0.95700881    -0.06100
C381        C  0.10994568  0.22040507  0.99482143    -0.00160
C382        C  0.10320411  0.23626153  0.53043871    -0.08630
C383        C  0.09427006  0.22376344  0.57131273     0.61750
H384        H  0.09998195  0.27693009  0.55479816     0.12440
H385        H  0.11972057  0.22120639  0.92981099     0.12460
C386        C  0.12039435  0.27443867  0.91125167     0.61980
F387        F  0.08521794  0.24314720  0.59961652    -0.23180
F388        F  0.11571074  0.20997244  0.58923843    -0.20510
F389        F  0.07316302  0.20617868  0.56424272    -0.20190
F390        F  0.14331875  0.29013908  0.91260774    -0.20240
F391        F  0.09834291  0.29021289  0.89994180    -0.20560
F392        F  0.12429862  0.25501881  0.88044677    -0.23240
C393        C  0.24439310  0.13619685  0.53289982    -0.06070
C394        C  0.25796327  0.13078726  0.99522565    -0.00150
C395        C  0.24259856  0.12382027  0.95956540    -0.08720
C396        C  0.21417874  0.12435734  0.96254897    -0.06100
C397        C  0.20054385  0.13105395  0.99978633    -0.00160
C398        C  0.21597220  0.13636126  0.53607972    -0.08630
C399        C  0.20289858  0.14309938  0.57788942     0.61750
H400        H  0.25635126  0.14112376  0.55998350     0.12440
H401        H  0.20228139  0.11965640  0.93530889     0.12460
C402        C  0.25580596  0.11538152  0.91859013     0.61980
F403        F  0.22187982  0.14861596  0.60826566    -0.23180
F404        F  0.18789434  0.12134666  0.59134683    -0.20510
F405        F  0.18634039  0.16573587  0.57420960    -0.20190
F406        F  0.27441944  0.09473898  0.92536276    -0.20240
F407        F  0.26860340  0.13727788  0.90096470    -0.20560
F408        F  0.23708888  0.10596949  0.89017881    -0.23240
C409        C  0.24435341  0.35625637  0.96191057    -0.06070
C410        C  0.25743150  0.36916286  0.99516783    -0.00150
C411        C  0.24153046  0.38223586  0.52658057    -0.08720
C412        C  0.21312983  0.38062573  0.52431112    -0.06100
C413        C  0.20017796  0.36716750  0.99150311    -0.00160
C414        C  0.21602114  0.35503458  0.95934233    -0.08630
C415        C  0.20333072  0.33990038  0.92318286     0.61750
H416        H  0.25660988  0.34659826  0.93797777     0.12440
H417        H  0.20069096  0.38999096  0.54833343     0.12460
C418        C  0.25409846  0.39827498  0.56197249     0.61980
F419        F  0.22255246  0.32733375  0.89796085    -0.23180
F420        F  0.18873283  0.35776465  0.89877883    -0.20510
F421        F  0.18643343  0.32010440  0.93827082    -0.20190
F422        F  0.27149533  0.41738499  0.54601325    -0.20240
F423        F  0.26812447  0.38101765  0.58809470    -0.20560
F424        F  0.23475305  0.41188223  0.58569751    -0.23240
C425        C  0.36345877  0.26573976  0.97451139    -0.06070
C426        C  0.34562086  0.27930990  0.00196361    -0.00150
C427        C  0.32861894  0.26401459  0.52838767    -0.08720
C428        C  0.32968258  0.23561546  0.52543765    -0.06100
C429        C  0.34743807  0.22203322  0.99793137    -0.00160
C430        C  0.36497675  0.23725540  0.97231370    -0.08630
C431        C  0.38463001  0.22371217  0.94198540     0.61750
H432        H  0.37636984  0.27775491  0.95475213     0.12440
H433        H  0.31663126  0.22364326  0.54503318     0.12460
C434        C  0.30890639  0.27737906  0.55886005     0.61980
F435        F  0.39812793  0.24240390  0.91786801    -0.23180
F436        F  0.37077523  0.20664569  0.91548183    -0.20510
F437        F  0.40382041  0.20897281  0.96369748    -0.20190
F438        F  0.29211410  0.29529989  0.53804822    -0.20240
F439        F  0.32308440  0.29109167  0.58925667    -0.20560
F440        F  0.29272367  0.25864302  0.57855871    -0.23240
In441      In  0.41194032  0.93265842  0.14109163     1.36870
C442        C  0.40822827  0.92944319  0.22356836     0.77290
O443        O  0.45071634  0.91022279  0.15455743    -0.61160
O444        O  0.45076954  0.94023616  0.10732251    -0.52070
C445        C  0.38225277  0.90275698  0.08975475     0.69950
O446        O  0.37382539  0.92474614  0.10526124    -0.46930
C447        C  0.40336951  0.98511950  0.12933171     0.74660
O448        O  0.39405301  0.91445393  0.20049075    -0.58790
O449        O  0.41966083  0.97132239  0.10730981    -0.48880
O450        O  0.42362379  0.94513804  0.20442305    -0.55220
C451        C  0.46435444  0.92400339  0.12925792     0.84840
O452        O  0.40522444  0.89526000  0.10212690    -0.57110
O453        O  0.38941150  0.97164804  0.15457636    -0.60410
In454      In  0.41057025  0.93361629  0.35169806     1.36870
C455        C  0.40784998  0.92972065  0.26912655     0.77290
O456        O  0.38839307  0.97250657  0.33795044    -0.61160
O457        O  0.41790168  0.97254337  0.38593432    -0.52070
C458        C  0.38062179  0.90367402  0.40262174     0.69950
O459        O  0.40346438  0.89611959  0.38932962    -0.46930
C460        C  0.46295671  0.92496049  0.36346573     0.74660
O461        O  0.39315825  0.91515442  0.29197086    -0.58790
O462        O  0.44930589  0.94148772  0.38532566    -0.48880
O463        O  0.42306763  0.94550753  0.28852949    -0.55220
C464        C  0.40203738  0.98618464  0.36345565     0.84840
O465        O  0.37233122  0.92589022  0.38825954    -0.57110
O466        O  0.44937975  0.91091350  0.33836216    -0.60410
In467      In  0.34133704  0.86317598  0.49656223     1.36870
C468        C  0.36715709  0.88790800  0.05813059     0.77290
O469        O  0.33993090  0.82414388  0.03177027    -0.61160
O470        O  0.34795956  0.82218876  0.46710426    -0.52070
C471        C  0.28753787  0.86782692  0.49560485     0.69950
O472        O  0.30151377  0.87194753  0.02762153    -0.46930
C473        C  0.36575205  0.88854543  0.43417475     0.74660
O474        O  0.34501354  0.89651332  0.04388980    -0.58790
O475        O  0.37503202  0.86713936  0.44998857    -0.48880
O476        O  0.37584028  0.86624251  0.04171045    -0.55220
C477        C  0.34447480  0.80931782  0.00040606     0.84840
O478        O  0.30136911  0.86151018  0.46377502    -0.57110
O479        O  0.34344258  0.89656008  0.44914042    -0.60410
In480      In  0.41124438  0.56724195  0.13967734     1.36870
C481        C  0.40788435  0.56996503  0.22204084     0.77290
O482        O  0.38900701  0.52887740  0.15393113    -0.61160
O483        O  0.41999421  0.52781916  0.10760599    -0.52070
C484        C  0.37973877  0.59685612  0.09014923     0.69950
O485        O  0.39739299  0.60732192  0.11306436    -0.46930
C486        C  0.46331356  0.57675501  0.12623046     0.74660
O487        O  0.39171743  0.58337593  0.19956117    -0.58790
O488        O  0.44995451  0.56081683  0.10378251    -0.48880
O489        O  0.42470745  0.55548326  0.20238656    -0.55220
C490        C  0.40337339  0.51473119  0.12926174     0.84840
O491        O  0.37742113  0.57170237  0.09396110    -0.57110
O492        O  0.44944661  0.59022113  0.15219423    -0.60410
In493      In  0.41147902  0.56787033  0.34983837     1.36870
C494        C  0.40811223  0.57030123  0.26749285     0.77290
O495        O  0.45023694  0.58958795  0.33623337    -0.61160
O496        O  0.45027752  0.55969792  0.38362182    -0.52070
C497        C  0.38103129  0.59946404  0.39915248     0.69950
O498        O  0.37297373  0.57727217  0.38474984    -0.46930
C499        C  0.40232250  0.51579731  0.36292999     0.74660
O500        O  0.39313561  0.58509738  0.29035684    -0.58790
O501        O  0.41814618  0.52935772  0.38533603    -0.48880
O502        O  0.42423088  0.55512695  0.28675251    -0.55220
C503        C  0.46386666  0.57570407  0.36164569     0.84840
O504        O  0.40413535  0.60625412  0.38682289    -0.57110
O505        O  0.38922752  0.52938364  0.33658248    -0.60410
In506      In  0.34136491  0.63809397  0.49584283     1.36870
C507        C  0.36444800  0.61209689  0.05914593     0.77290
O508        O  0.30175323  0.63200345  0.02816488    -0.61160
O509        O  0.30187680  0.63615723  0.46245565    -0.52070
C510        C  0.34568959  0.69206338  0.49618444     0.69950
O511        O  0.36557500  0.67644215  0.98925435    -0.46930
C512        C  0.36566967  0.61489109  0.43042802     0.74660
O513        O  0.36521204  0.63743685  0.05591291    -0.58790
O514        O  0.34344903  0.60690613  0.44467084    -0.48880
O515        O  0.35069388  0.60046587  0.03178032    -0.55220
C516        C  0.28800817  0.63272159  0.99503233     0.84840
O517        O  0.32382118  0.68000710  0.50269277    -0.57110
O518        O  0.37452122  0.63598510  0.44745885    -0.60410
In519      In  0.04609629  0.93255507  0.14115021     1.36870
C520        C  0.04909354  0.92919436  0.22368844     0.77290
O521        O  0.06805220  0.97136898  0.15389602    -0.61160
O522        O  0.03743807  0.97125261  0.10755063    -0.52070
C523        C  0.07662509  0.90239832  0.08982320     0.69950
O524        O  0.05450297  0.89438880  0.10441139    -0.46930
C525        C  0.99391748  0.92395598  0.12922451     0.74660
O526        O  0.06382747  0.91424314  0.20065322    -0.58790
O527        O  0.00730792  0.94002006  0.10710767    -0.48880
O528        O  0.03383847  0.94526001  0.20448768    -0.55220
C529        C  0.05378409  0.98491669  0.12886254     0.84840
O530        O  0.08394150  0.92513648  0.10318460    -0.57110
O531        O  0.00769145  0.91027267  0.15465908    -0.60410
In532      In  0.04495551  0.93242296  0.35181010     1.36870
C533        C  0.04865953  0.92896635  0.26925174     0.77290
O534        O  0.00640330  0.91034324  0.33851051    -0.61160
O535        O  0.50589771  0.94124558  0.38502560    -0.52070
C536        C  0.07477447  0.90235200  0.40319427     0.69950
O537        O  0.08310240  0.92403442  0.38770650    -0.46930
C538        C  0.05395943  0.98465602  0.36350466     0.74660
O539        O  0.06282757  0.91366585  0.29209060    -0.58790
O540        O  0.03746020  0.97168379  0.38553332    -0.48880
O541        O  0.03319393  0.94500111  0.28865720    -0.55220
C542        C  0.49254181  0.92475714  0.36342296     0.84840
O543        O  0.05182095  0.89523675  0.39083526    -0.57110
O544        O  0.06782285  0.97042963  0.33841019    -0.60410
In545      In  0.11645686  0.86181880  0.49488607     1.36870
C546        C  0.09174020  0.88723500  0.05790849     0.77290
O547        O  0.15698286  0.86467493  0.02645167    -0.61160
O548        O  0.15575195  0.86488118  0.46069497    -0.52070
C549        C  0.11278223  0.80788421  0.49148263     0.69950
O550        O  0.11424263  0.82105628  0.02522390    -0.46930
C551        C  0.09002542  0.88733746  0.43457280     0.74660
O552        O  0.08389245  0.86484269  0.04375024    -0.58790
O553        O  0.11259680  0.89506376  0.44786528    -0.48880
O554        O  0.11278712  0.89622087  0.04093462    -0.55220
C555        C  0.17021058  0.86553450  0.99281555     0.84840
O556        O  0.11321871  0.82261760  0.45969763    -0.57110
O557        O  0.08113964  0.86630181  0.45152834    -0.60410
In558      In  0.04514855  0.56719025  0.13932220     1.36870
C559        C  0.04870230  0.57041089  0.22198857     0.77290
O560        O  0.00635019  0.58996357  0.15255507    -0.61160
O561        O  0.50665964  0.56025013  0.10433458    -0.52070
C562        C  0.07547610  0.59643973  0.08798886     0.69950
O563        O  0.08264419  0.57342904  0.10064111    -0.46930
C564        C  0.05358731  0.51453519  0.12831683     0.74660
O565        O  0.06323983  0.58506059  0.19902960    -0.58790
O566        O  0.03687882  0.52788750  0.10686591    -0.48880
O567        O  0.03294065  0.55512334  0.20265807    -0.55220
C568        C  0.49291144  0.57651680  0.12650326     0.84840
O569        O  0.05355286  0.60518329  0.10320958    -0.57110
O570        O  0.06787793  0.52849524  0.15256404    -0.60410
In571      In  0.04599405  0.56662694  0.35027846     1.36870
C572        C  0.04910919  0.57006582  0.26759615     0.77290
O573        O  0.06807618  0.52739222  0.33723018    -0.61160
O574        O  0.03814490  0.52832822  0.38501858    -0.52070
C575        C  0.07623692  0.59635061  0.40133854     0.69950
O576        O  0.05330883  0.60399190  0.38895084    -0.46930
C577        C  0.99347636  0.57549565  0.36186203     0.74660
O578        O  0.06338353  0.58502244  0.29057548    -0.58790
O579        O  0.00694012  0.55914002  0.38374956    -0.48880
O580        O  0.03424577  0.55395106  0.28691040    -0.55220
C581        C  0.05421414  0.51424603  0.36304095     0.84840
O582        O  0.08442483  0.57423275  0.38595752    -0.57110
O583        O  0.00729405  0.58933464  0.33689163    -0.60410
In584      In  0.11647256  0.63622097  0.49524038     1.36870
C585        C  0.09069831  0.61119678  0.05644013     0.77290
O586        O  0.11227469  0.67636418  0.02785465    -0.61160
O587        O  0.11408271  0.67619136  0.46226043    -0.52070
C588        C  0.17040737  0.63230671  0.49850103     0.69950
O589        O  0.15547725  0.63325404  0.03031377    -0.46930
C590        C  0.09138083  0.61124613  0.43296741     0.74660
O591        O  0.11208574  0.60187153  0.04005923    -0.58790
O592        O  0.08250980  0.63283231  0.44934834    -0.48880
O593        O  0.08280014  0.63364305  0.04228597    -0.55220
C594        C  0.11189576  0.69025048  0.99515776     0.84840
O595        O  0.15746196  0.63326992  0.46476893    -0.57110
O596        O  0.11357606  0.60282984  0.44738705    -0.60410
C597        C  0.10419906  0.76471911  0.02749681    -0.06070
C598        C  0.11075228  0.77777370  0.49013454    -0.00150
C599        C  0.11536236  0.76187006  0.45364988    -0.08720
C600        C  0.11538560  0.73345438  0.45701869    -0.06100
C601        C  0.11007715  0.72033841  0.49482756    -0.00160
C602        C  0.10311250  0.73633255  0.03044403    -0.08630
C603        C  0.09420664  0.72384350  0.07133994     0.61750
H604        H  0.09994080  0.77700260  0.05480319     0.12440
H605        H  0.11986935  0.72115256  0.42982419     0.12460
C606        C  0.12042651  0.77438948  0.41124879     0.61980
F607        F  0.08519231  0.74323519  0.09965871    -0.23180
F608        F  0.11565560  0.71004159  0.08922401    -0.20510
F609        F  0.07308272  0.70627089  0.06431980    -0.20190
F610        F  0.14333092  0.79012002  0.41256819    -0.20240
F611        F  0.09834708  0.79013579  0.39997414    -0.20560
F612        F  0.12433386  0.75497404  0.38043845    -0.23240
C613        C  0.24439770  0.63649328  0.03285576    -0.06070
C614        C  0.25796272  0.63052664  0.49526168    -0.00150
C615        C  0.24260714  0.62351791  0.45960941    -0.08720
C616        C  0.21418700  0.62398196  0.46261130    -0.06100
C617        C  0.20054768  0.63070554  0.49983367    -0.00160
C618        C  0.21597553  0.63667443  0.03604038    -0.08630
C619        C  0.20291123  0.64334460  0.07788172     0.61750
H620        H  0.25636225  0.64139530  0.05994334     0.12440
H621        H  0.20229143  0.61925138  0.43537994     0.12460
C622        C  0.25582362  0.61517129  0.41859776     0.61980
F623        F  0.22189973  0.64880919  0.10827035    -0.23180
F624        F  0.18791394  0.62156662  0.09125984    -0.20510
F625        F  0.18634862  0.66598538  0.07430316    -0.20190
F626        F  0.27453144  0.59460183  0.42528642    -0.20240
F627        F  0.26851252  0.63714478  0.40101177    -0.20560
F628        F  0.23712911  0.60570842  0.39019082    -0.23240
C629        C  0.24435030  0.85625443  0.46190892    -0.06070
C630        C  0.25742768  0.86916057  0.49516710    -0.00150
C631        C  0.24153575  0.88224026  0.02658075    -0.08720
C632        C  0.21313549  0.88063459  0.02430930    -0.06100
C633        C  0.20017314  0.86715697  0.49150512    -0.00160
C634        C  0.21601801  0.85502898  0.45934168    -0.08630
C635        C  0.20332936  0.83989622  0.42317936     0.61750
H636        H  0.25660752  0.84659893  0.43797462     0.12440
H637        H  0.20069738  0.89000270  0.04832991     0.12460
C638        C  0.25410457  0.89827736  0.06197412     0.61980
F639        F  0.22255248  0.82733418  0.39795458    -0.23180
F640        F  0.18872923  0.85776107  0.39877938    -0.20510
F641        F  0.18643464  0.82009666  0.43826315    -0.20190
F642        F  0.27150273  0.91738670  0.04601651    -0.20240
F643        F  0.26812908  0.88101819  0.08809535    -0.20560
F644        F  0.23475999  0.91188516  0.08570006    -0.23240
C645        C  0.36343687  0.76572385  0.47450986    -0.06070
C646        C  0.34560193  0.77929817  0.50196082    -0.00150
C647        C  0.32864656  0.76402388  0.02839978    -0.08720
C648        C  0.32973003  0.73562584  0.02547037    -0.06100
C649        C  0.34738718  0.72201847  0.49789795    -0.00160
C650        C  0.36494267  0.73723888  0.47230197    -0.08630
C651        C  0.38460586  0.72369456  0.44198942     0.61750
H652        H  0.37635762  0.77773670  0.45476207     0.12440
H653        H  0.31668807  0.72365087  0.04507703     0.12460
C654        C  0.30892046  0.77738294  0.05885758     0.61980
F655        F  0.39811676  0.74238567  0.41788789    -0.23180
F656        F  0.37075927  0.70663227  0.41546941    -0.20510
F657        F  0.40378568  0.70895123  0.46371712    -0.20190
F658        F  0.29212478  0.79529353  0.03803161    -0.20240
F659        F  0.32308454  0.79110542  0.08925892    -0.20560
F660        F  0.29274106  0.75864163  0.07855136    -0.23240
In661      In  0.41193928  0.93265954  0.64108978     1.36870
C662        C  0.40822810  0.92944396  0.72356644     0.77290
O663        O  0.45071482  0.91022321  0.65455620    -0.61160
O664        O  0.45076958  0.94023658  0.60732139    -0.52070
C665        C  0.38225238  0.90275584  0.58975297     0.69950
O666        O  0.37382443  0.92474497  0.60525888    -0.46930
C667        C  0.40336380  0.98512072  0.62933349     0.74660
O668        O  0.39405272  0.91445469  0.70048903    -0.58790
O669        O  0.41965778  0.97132595  0.60731254    -0.48880
O670        O  0.42362339  0.94513896  0.70442100    -0.55220
C671        C  0.46435367  0.92400259  0.62925614     0.84840
O672        O  0.40522474  0.89526060  0.60212435    -0.57110
O673        O  0.38940624  0.97164689  0.65457552    -0.60410
In674      In  0.41057085  0.93361734  0.85169553     1.36870
C675        C  0.40785015  0.92972131  0.76912453     0.77290
O676        O  0.38839679  0.97250958  0.83794796    -0.61160
O677        O  0.41790429  0.97254295  0.88593351    -0.52070
C678        C  0.38062220  0.90367697  0.90261909     0.69950
O679        O  0.40346438  0.89612139  0.88932683    -0.46930
C680        C  0.46295682  0.92496206  0.86346374     0.74660
O681        O  0.39315800  0.91515560  0.79196900    -0.58790
O682        O  0.44930553  0.94148850  0.88532422    -0.48880
O683        O  0.42306843  0.94550773  0.78852713    -0.55220
C684        C  0.40204195  0.98618599  0.86345428     0.84840
O685        O  0.37233182  0.92589304  0.88825627    -0.57110
O686        O  0.44938034  0.91091440  0.83836035    -0.60410
In687      In  0.34133887  0.86318220  0.99656037     1.36870
C688        C  0.36715626  0.88790475  0.55813086     0.77290
O689        O  0.33992444  0.82413503  0.53177162    -0.61160
O690        O  0.34796330  0.82219761  0.96710092    -0.52070
C691        C  0.28754097  0.86782893  0.99560461     0.69950
O692        O  0.30151070  0.87194492  0.52762211    -0.46930
C693        C  0.36575292  0.88854987  0.93417323     0.74660
O694        O  0.34501136  0.89650782  0.54389207    -0.58790
O695        O  0.37503294  0.86714394  0.94998722    -0.48880
O696        O  0.37583997  0.86623935  0.54171087    -0.55220
C697        C  0.34446634  0.80930805  0.50040753     0.84840
O698        O  0.30137162  0.86151274  0.96377409    -0.57110
O699        O  0.34344412  0.89656584  0.94913978    -0.60410
In700      In  0.41122935  0.56724392  0.63968371     1.36870
C701        C  0.40787616  0.56996535  0.72204814     0.77290
O702        O  0.38899348  0.52887722  0.65393177    -0.61160
O703        O  0.41998568  0.52782249  0.60761396    -0.52070
C704        C  0.37972771  0.59685136  0.59014313     0.69950
O705        O  0.39737006  0.60732368  0.61307310    -0.46930
C706        C  0.46329626  0.57675807  0.62624393     0.74660
O707        O  0.39170411  0.58337340  0.69957257    -0.58790
O708        O  0.44993966  0.56081784  0.60379634    -0.48880
O709        O  0.42469815  0.55548505  0.70238928    -0.55220
C710        C  0.40336401  0.51473261  0.62926527     0.84840
O711        O  0.37741833  0.57169661  0.59395062    -0.57110
O712        O  0.44942722  0.59022909  0.65219889    -0.60410
In713      In  0.41148929  0.56787229  0.84984698     1.36870
C714        C  0.40811177  0.57030337  0.76750059     0.77290
O715        O  0.45025176  0.58958603  0.83624500    -0.61160
O716        O  0.45028840  0.55969903  0.88363595    -0.52070
C717        C  0.38104090  0.59946606  0.89916666     0.69950
O718        O  0.37299001  0.57726598  0.88478511    -0.46930
C719        C  0.40233009  0.51579857  0.86293018     0.74660
O720        O  0.39313674  0.58509778  0.79036953    -0.58790
O721        O  0.41815507  0.52935671  0.88533735    -0.48880
O722        O  0.42423604  0.55513238  0.78675558    -0.55220
C723        C  0.46387988  0.57570473  0.86166265     0.84840
O724        O  0.40413783  0.60626313  0.88681396    -0.57110
O725        O  0.38923617  0.52938711  0.83658414    -0.60410
In726      In  0.34139048  0.63811905  0.99585712     1.36870
C727        C  0.36443947  0.61208431  0.55912928     0.77290
O728        O  0.30175358  0.63189723  0.52817478    -0.61160
O729        O  0.30190672  0.63626798  0.96244738    -0.52070
C730        C  0.34574278  0.69208055  0.99622070     0.69950
O731        O  0.36552474  0.67642897  0.48922417    -0.46930
C732        C  0.36568119  0.61489680  0.93044300     0.74660
O733        O  0.36515955  0.63742812  0.55592934    -0.58790
O734        O  0.34347468  0.60690054  0.94472531    -0.48880
O735        O  0.35072797  0.60044213  0.53172488    -0.55220
C736        C  0.28799915  0.63256641  0.49504922     0.84840
O737        O  0.32387247  0.68003151  0.00273281    -0.57110
O738        O  0.37452252  0.63600912  0.94743340    -0.60410
In739      In  0.04609662  0.93254602  0.64114351     1.36870
C740        C  0.04909316  0.92919122  0.72368312     0.77290
O741        O  0.06805028  0.97136097  0.65389391    -0.61160
O742        O  0.03743305  0.97124539  0.60755320    -0.52070
C743        C  0.07662214  0.90237954  0.58981755     0.69950
O744        O  0.05449948  0.89437511  0.60441065    -0.46930
C745        C  0.99391693  0.92395152  0.62922069     0.74660
O746        O  0.06382897  0.91423978  0.70065094    -0.58790
O747        O  0.00730901  0.94001156  0.60709902    -0.48880
O748        O  0.03383583  0.94525255  0.70447889    -0.55220
C749        C  0.05377593  0.98490987  0.62887016     0.84840
O750        O  0.08394035  0.92511957  0.60317060    -0.57110
O751        O  0.00768982  0.91026868  0.65465746    -0.60410
In752      In  0.04495454  0.93243192  0.85180305     1.36870
C753        C  0.04865963  0.92896872  0.76924645     0.77290
O754        O  0.00640408  0.91034731  0.83850840    -0.61160
O755        O  0.50589634  0.94125307  0.88501778    -0.52070
C756        C  0.07477747  0.90237170  0.90318840     0.69950
O757        O  0.08310313  0.92405213  0.88769257    -0.46930
C758        C  0.05396413  0.98466349  0.86351038     0.74660
O759        O  0.06282574  0.91366861  0.79208854    -0.58790
O760        O  0.03746211  0.97169088  0.88553359    -0.48880
O761        O  0.03319621  0.94500780  0.78864823    -0.55220
C762        C  0.49254175  0.92476140  0.86341925     0.84840
O763        O  0.05182471  0.89525086  0.89083372    -0.57110
O764        O  0.06782275  0.97043868  0.83840757    -0.60410
In765      In  0.11646262  0.86185800  0.99488506     1.36870
C766        C  0.09173600  0.88720769  0.55790751     0.77290
O767        O  0.15697777  0.86464816  0.52645526    -0.61160
O768        O  0.15575759  0.86490306  0.96069093    -0.52070
C769        C  0.11276177  0.80793559  0.99148090     0.69950
O770        O  0.11424071  0.82100937  0.52522459    -0.46930
C771        C  0.09002977  0.88736606  0.93457177     0.74660
O772        O  0.08388128  0.86481817  0.54374686    -0.58790
O773        O  0.11259687  0.89510214  0.94786898    -0.48880
O774        O  0.11278975  0.89618281  0.54094036    -0.55220
C775        C  0.17020536  0.86551540  0.49281927     0.84840
O776        O  0.11319936  0.82266724  0.95969469    -0.57110
O777        O  0.08114845  0.86632874  0.95152688    -0.60410
In778      In  0.04512714  0.56718365  0.63935456     1.36870
C779        C  0.04869635  0.57041014  0.72201946     0.77290
O780        O  0.00633119  0.58996353  0.65257845    -0.61160
O781        O  0.50664005  0.56024110  0.60437016    -0.52070
C782        C  0.07545392  0.59641265  0.58799848     0.69950
O783        O  0.08261927  0.57340729  0.60067500    -0.46930
C784        C  0.05356882  0.51452856  0.62834059     0.74660
O785        O  0.06322705  0.58506031  0.69905103    -0.58790
O786        O  0.03685184  0.52787998  0.60690416    -0.48880
O787        O  0.03293033  0.55512142  0.70269888    -0.55220
C788        C  0.49289313  0.57651485  0.62652783     0.84840
O789        O  0.05353236  0.60516702  0.60321111    -0.57110
O790        O  0.06786026  0.52848862  0.65258637    -0.60410
In791      In  0.04601188  0.56663550  0.85031336     1.36870
C792        C  0.04911535  0.57006620  0.76762732     0.77290
O793        O  0.06809263  0.52740143  0.83725720    -0.61160
O794        O  0.03816264  0.52833545  0.88504902    -0.52070
C795        C  0.07625437  0.59637581  0.90136348     0.69950
O796        O  0.05333403  0.60401745  0.88894300    -0.46930
C797        C  0.99349062  0.57550046  0.86188951     0.74660
O798        O  0.06339714  0.58502137  0.79059806    -0.58790
O799        O  0.00695532  0.55915108  0.88378706    -0.48880
O800        O  0.03425478  0.55395417  0.78695133    -0.55220
C801        C  0.05422760  0.51425364  0.86306276     0.84840
O802        O  0.08443694  0.57424342  0.88602453    -0.57110
O803        O  0.00730932  0.58933774  0.83691868    -0.60410
In804      In  0.11644678  0.63631358  0.99524805     1.36870
C805        C  0.09068290  0.61114843  0.55643550     0.77290
O806        O  0.11239088  0.67628770  0.52785267    -0.61160
O807        O  0.11395051  0.67626364  0.96225606    -0.52070
C808        C  0.17039818  0.63258751  0.99847936     0.69950
O809        O  0.15547681  0.63297254  0.53032541    -0.46930
C810        C  0.09139127  0.61129142  0.93298249     0.74660
O811        O  0.11206104  0.60179778  0.54006272    -0.58790
O812        O  0.08252009  0.63289699  0.94930376    -0.48880
O813        O  0.08280630  0.63359752  0.54226354    -0.55220
C814        C  0.11203059  0.69017946  0.49516064     0.84840
O815        O  0.15743544  0.63345678  0.96475732    -0.57110
O816        O  0.11357494  0.60287874  0.94745342    -0.60410
C817        C  0.10426309  0.76465132  0.52749488    -0.06070
C818        C  0.11069842  0.77783181  0.99013286    -0.00150
C819        C  0.11528672  0.76192592  0.95364557    -0.08720
C820        C  0.11525925  0.73351289  0.95700880    -0.06100
C821        C  0.10994570  0.72040505  0.99482141    -0.00160
C822        C  0.10320410  0.73626154  0.53043874    -0.08630
C823        C  0.09427005  0.72376345  0.57131276     0.61750
H824        H  0.09998195  0.77693011  0.55479818     0.12440
H825        H  0.11972059  0.72120637  0.92981097     0.12460
C826        C  0.12039437  0.77443864  0.91125165     0.61980
F827        F  0.08521793  0.74314722  0.59961655    -0.23180
F828        F  0.11571073  0.70997245  0.58923847    -0.20510
F829        F  0.07316301  0.70617870  0.56424275    -0.20190
F830        F  0.14331876  0.79013907  0.91260773    -0.20240
F831        F  0.09834292  0.79021286  0.89994178    -0.20560
F832        F  0.12429865  0.75501879  0.88044675    -0.23240
C833        C  0.24439309  0.63619688  0.53289991    -0.06070
C834        C  0.25796327  0.63078725  0.99522540    -0.00150
C835        C  0.24259856  0.62382028  0.95956515    -0.08720
C836        C  0.21417873  0.62435734  0.96254874    -0.06100
C837        C  0.20054385  0.63105390  0.99978613    -0.00160
C838        C  0.21597220  0.63636130  0.53607980    -0.08630
C839        C  0.20289857  0.64309944  0.57788949     0.61750
H840        H  0.25635126  0.64112381  0.55998359     0.12440
H841        H  0.20228138  0.61965641  0.93530865     0.12460
C842        C  0.25580597  0.61538154  0.91858989     0.61980
F843        F  0.22187980  0.64861605  0.60826572    -0.23180
F844        F  0.18789433  0.62134673  0.59134693    -0.20510
F845        F  0.18634038  0.66573593  0.57420963    -0.20190
F846        F  0.27441949  0.59473903  0.92536254    -0.20240
F847        F  0.26860339  0.63727792  0.90096447    -0.20560
F848        F  0.23708891  0.60596948  0.89017858    -0.23240
C849        C  0.24435342  0.85625638  0.96191053    -0.06070
C850        C  0.25743150  0.86916287  0.99516780    -0.00150
C851        C  0.24153046  0.88223586  0.52658058    -0.08720
C852        C  0.21312983  0.88062574  0.52431113    -0.06100
C853        C  0.20017796  0.86716750  0.99150307    -0.00160
C854        C  0.21602114  0.85503458  0.95934229    -0.08630
C855        C  0.20333073  0.83990038  0.92318281     0.61750
H856        H  0.25660989  0.84659827  0.93797773     0.12440
H857        H  0.20069096  0.88999096  0.54833344     0.12460
C858        C  0.25409846  0.89827498  0.56197250     0.61980
F859        F  0.22255248  0.82733376  0.89796080    -0.23180
F860        F  0.18873284  0.85776465  0.89877879    -0.20510
F861        F  0.18643345  0.82010439  0.93827076    -0.20190
F862        F  0.27149533  0.91738498  0.54601325    -0.20240
F863        F  0.26812447  0.88101765  0.58809471    -0.20560
F864        F  0.23475306  0.91188223  0.58569752    -0.23240
C865        C  0.36345870  0.76573977  0.97451146    -0.06070
C866        C  0.34562082  0.77930993  0.00196369    -0.00150
C867        C  0.32861893  0.76401458  0.52838762    -0.08720
C868        C  0.32968255  0.73561545  0.52543757    -0.06100
C869        C  0.34743804  0.72203323  0.99793155    -0.00160
C870        C  0.36497669  0.73725541  0.97231380    -0.08630
C871        C  0.38463000  0.72371222  0.94198553     0.61750
H872        H  0.37636976  0.77775492  0.95475217     0.12440
H873        H  0.31663122  0.72364323  0.54503307     0.12460
C874        C  0.30890637  0.77737904  0.55886000     0.61980
F875        F  0.39812789  0.74240397  0.91786814    -0.23180
F876        F  0.37077529  0.70664571  0.91548193    -0.20510
F877        F  0.40382044  0.70897292  0.96369766    -0.20190
F878        F  0.29211409  0.79529988  0.53804817    -0.20240
F879        F  0.32308437  0.79109164  0.58925663    -0.20560
F880        F  0.29272364  0.75864300  0.57855863    -0.23240
In881      In  0.91194031  0.43265842  0.14109164     1.36870
C882        C  0.90822826  0.42944320  0.22356837     0.77290
O883        O  0.95071633  0.41022278  0.15455745    -0.61160
O884        O  0.95076953  0.44023615  0.10732252    -0.52070
C885        C  0.88225276  0.40275697  0.08975477     0.69950
O886        O  0.87382537  0.42474612  0.10526126    -0.46930
C887        C  0.90336951  0.48511949  0.12933172     0.74660
O888        O  0.89405300  0.41445393  0.20049076    -0.58790
O889        O  0.91966083  0.47132238  0.10730982    -0.48880
O890        O  0.92362379  0.44513803  0.20442306    -0.55220
C891        C  0.96435443  0.42400339  0.12925794     0.84840
O892        O  0.90522443  0.39526000  0.10212691    -0.57110
O893        O  0.88941150  0.47164805  0.15457636    -0.60410
In894      In  0.91057025  0.43361629  0.35169808     1.36870
C895        C  0.90784997  0.42972065  0.26912657     0.77290
O896        O  0.88839309  0.47250659  0.33795046    -0.61160
O897        O  0.91790169  0.47254337  0.38593434    -0.52070
C898        C  0.88062179  0.40367403  0.40262175     0.69950
O899        O  0.90346438  0.39611959  0.38932963    -0.46930
C900        C  0.96295671  0.42496049  0.36346575     0.74660
O901        O  0.89315824  0.41515443  0.29197088    -0.58790
O902        O  0.94930589  0.44148772  0.38532568    -0.48880
O903        O  0.92306763  0.44550753  0.28852950    -0.55220
C904        C  0.90203740  0.48618465  0.36345568     0.84840
O905        O  0.87233123  0.42589023  0.38825955    -0.57110
O906        O  0.94937975  0.41091351  0.33836217    -0.60410
In907      In  0.84133705  0.36317598  0.49656223     1.36870
C908        C  0.86715708  0.38790799  0.05813061     0.77290
O909        O  0.83993090  0.32414385  0.03177024    -0.61160
O910        O  0.84795956  0.32218875  0.46710427    -0.52070
C911        C  0.78753788  0.36782692  0.49560484     0.69950
O912        O  0.80151377  0.37194755  0.02762153    -0.46930
C913        C  0.86575205  0.38854543  0.43417475     0.74660
O914        O  0.84501353  0.39651330  0.04388980    -0.58790
O915        O  0.87503201  0.36713936  0.44998856    -0.48880
O916        O  0.87584027  0.36624249  0.04171047    -0.55220
C917        C  0.84447481  0.30931780  0.00040603     0.84840
O918        O  0.80136912  0.36151016  0.46377502    -0.57110
O919        O  0.84344259  0.39656008  0.44914044    -0.60410
In920      In  0.91124433  0.06724196  0.13967730     1.36870
C921        C  0.90788432  0.06996503  0.22204080     0.77290
O922        O  0.88900698  0.02887741  0.15393111    -0.61160
O923        O  0.91999418  0.02781917  0.10760595    -0.52070
C924        C  0.87973868  0.09685612  0.09014922     0.69950
O925        O  0.89739286  0.10732193  0.11306440    -0.46930
C926        C  0.96331352  0.07675503  0.12623041     0.74660
O927        O  0.89171739  0.08337593  0.19956114    -0.58790
O928        O  0.94995447  0.06081686  0.10378245    -0.48880
O929        O  0.92470741  0.05548326  0.20238652    -0.55220
C930        C  0.90337337  0.01473119  0.12926172     0.84840
O931        O  0.87742110  0.07170236  0.09396100    -0.57110
O932        O  0.94944657  0.09022114  0.15219418    -0.60410
In933      In  0.91147900  0.06787033  0.34983833     1.36870
C934        C  0.90811220  0.07030123  0.26749282     0.77290
O935        O  0.95023692  0.08958795  0.33623333    -0.61160
O936        O  0.95027750  0.05969792  0.38362179    -0.52070
C937        C  0.88103127  0.09946403  0.39915246     0.69950
O938        O  0.87297371  0.07727216  0.38474982    -0.46930
C939        C  0.90232250  0.01579730  0.36292997     0.74660
O940        O  0.89313559  0.08509737  0.29035681    -0.58790
O941        O  0.91814617  0.02935772  0.38533600    -0.48880
O942        O  0.92423085  0.05512695  0.28675246    -0.55220
C943        C  0.96386664  0.07570407  0.36164565     0.84840
O944        O  0.90413532  0.10625411  0.38682285    -0.57110
O945        O  0.88922751  0.02938363  0.33658246    -0.60410
In946      In  0.84136490  0.13809395  0.49584283     1.36870
C947        C  0.86444790  0.11209689  0.05914593     0.77290
O948        O  0.80175326  0.13200369  0.02816502    -0.61160
O949        O  0.80187680  0.13615727  0.46245561    -0.52070
C950        C  0.84568958  0.19206336  0.49618448     0.69950
O951        O  0.86557522  0.17644215  0.98925554    -0.46930
C952        C  0.86566965  0.11489108  0.43042801     0.74660
O953        O  0.86521184  0.13743687  0.05591304    -0.58790
O954        O  0.84344901  0.10690612  0.44467083    -0.48880
O955        O  0.85069389  0.10046587  0.03178018    -0.55220
C956        C  0.78800818  0.13272161  0.99503247     0.84840
O957        O  0.82382121  0.18000707  0.50269309    -0.57110
O958        O  0.87452121  0.13598507  0.44745885    -0.60410
In959      In  0.54609628  0.43255508  0.14115024     1.36870
C960        C  0.54909353  0.42919437  0.22368846     0.77290
O961        O  0.56805220  0.47136898  0.15389606    -0.61160
O962        O  0.53743806  0.47125262  0.10755066    -0.52070
C963        C  0.57662509  0.40239834  0.08982322     0.69950
O964        O  0.55450298  0.39438880  0.10441144    -0.46930
C965        C  0.49391747  0.42395598  0.12922452     0.74660
O966        O  0.56382747  0.41424316  0.20065324    -0.58790
O967        O  0.50730791  0.44002007  0.10710768    -0.48880
O968        O  0.53383845  0.44526001  0.20448770    -0.55220
C969        C  0.55378409  0.48491670  0.12886257     0.84840
O970        O  0.58394148  0.42513651  0.10318460    -0.57110
O971        O  0.50769144  0.41027267  0.15465909    -0.60410
In972      In  0.54495550  0.43242297  0.35181012     1.36870
C973        C  0.54865952  0.42896636  0.26925176     0.77290
O974        O  0.50640330  0.41034325  0.33851053    -0.61160
O975        O  0.00589771  0.44124559  0.38502562    -0.52070
C976        C  0.57477447  0.40235200  0.40319428     0.69950
O977        O  0.58310239  0.42403443  0.38770652    -0.46930
C978        C  0.55395943  0.48465603  0.36350468     0.74660
O979        O  0.56282756  0.41366586  0.29209062    -0.58790
O980        O  0.53746020  0.47168379  0.38553335    -0.48880
O981        O  0.53319392  0.44500111  0.28865722    -0.55220
C982        C  0.99254181  0.42475715  0.36342298     0.84840
O983        O  0.55182095  0.39523675  0.39083526    -0.57110
O984        O  0.56782285  0.47042963  0.33841021    -0.60410
In985      In  0.61645687  0.36181879  0.49488607     1.36870
C986        C  0.59174019  0.38723502  0.05790851     0.77290
O987        O  0.65698286  0.36467493  0.02645171    -0.61160
O988        O  0.65575195  0.36488117  0.46069496    -0.52070
C989        C  0.61278223  0.30788420  0.49148261     0.69950
O990        O  0.61424261  0.32105630  0.02522392    -0.46930
C991        C  0.59002542  0.38733747  0.43457280     0.74660
O992        O  0.58389246  0.36484270  0.04375028    -0.58790
O993        O  0.61259680  0.39506376  0.44786528    -0.48880
O994        O  0.61278711  0.39622090  0.04093462    -0.55220
C995        C  0.67021058  0.36553451  0.99281559     0.84840
O996        O  0.61321872  0.32261760  0.45969762    -0.57110
O997        O  0.58113964  0.36630180  0.45152834    -0.60410
In998      In  0.54514851  0.06719024  0.13932215     1.36870
C999        C  0.54870226  0.07041089  0.22198852     0.77290
O1000       O  0.50635014  0.08996357  0.15255503    -0.61160
O1001       O  0.00665960  0.06025013  0.10433454    -0.52070
C1002       C  0.57547606  0.09643974  0.08798883     0.69950
O1003       O  0.58264416  0.07342904  0.10064109    -0.46930
C1004       C  0.55358729  0.01453519  0.12831678     0.74660
O1005       O  0.56323977  0.08506060  0.19902955    -0.58790
O1006       O  0.53687880  0.02788749  0.10686586    -0.48880
O1007       O  0.53294062  0.05512332  0.20265802    -0.55220
C1008       C  0.99291140  0.07651680  0.12650323     0.84840
O1009       O  0.55355282  0.10518329  0.10320953    -0.57110
O1010       O  0.56787790  0.02849524  0.15256400    -0.60410
In1011     In  0.54599401  0.06662694  0.35027842     1.36870
C1012       C  0.54910915  0.07006582  0.26759610     0.77290
O1013       O  0.56807615  0.02739222  0.33723014    -0.61160
O1014       O  0.53814487  0.02832822  0.38501854    -0.52070
C1015       C  0.57623689  0.09635061  0.40133849     0.69950
O1016       O  0.55330879  0.10399190  0.38895080    -0.46930
C1017       C  0.49347631  0.07549564  0.36186198     0.74660
O1018       O  0.56338348  0.08502245  0.29057543    -0.58790
O1019       O  0.50694008  0.05914001  0.38374951    -0.48880
O1020       O  0.53424574  0.05395105  0.28691035    -0.55220
C1021       C  0.55421412  0.01424603  0.36304091     0.84840
O1022       O  0.58442479  0.07423275  0.38595746    -0.57110
O1023       O  0.50729401  0.08933463  0.33689158    -0.60410
In1024     In  0.61647255  0.13622097  0.49524032     1.36870
C1025       C  0.59069829  0.11119679  0.05644012     0.77290
O1026       O  0.61227466  0.17636420  0.02785466    -0.61160
O1027       O  0.61408271  0.17619136  0.46226038    -0.52070
C1028       C  0.67040737  0.13230670  0.49850096     0.69950
O1029       O  0.65547724  0.13325408  0.03031386    -0.46930
C1030       C  0.59138080  0.11124613  0.43296735     0.74660
O1031       O  0.61208573  0.10187154  0.04005924    -0.58790
O1032       O  0.58250978  0.13283231  0.44934829    -0.48880
O1033       O  0.58280012  0.13364306  0.04228596    -0.55220
C1034       C  0.61189575  0.19025050  0.99515777     0.84840
O1035       O  0.65746195  0.13326992  0.46476886    -0.57110
O1036       O  0.61357604  0.10282984  0.44738699    -0.60410
C1037       C  0.60419904  0.26471913  0.02749682    -0.06070
C1038       C  0.61075229  0.27777370  0.49013452    -0.00150
C1039       C  0.61536236  0.26187006  0.45364985    -0.08720
C1040       C  0.61538560  0.23345438  0.45701866    -0.06100
C1041       C  0.61007715  0.22033841  0.49482752    -0.00160
C1042       C  0.60311248  0.23633257  0.03044404    -0.08630
C1043       C  0.59420661  0.22384353  0.07133995     0.61750
H1044       H  0.59994078  0.27700262  0.05480320     0.12440
H1045       H  0.61986935  0.22115256  0.42982415     0.12460
C1046       C  0.62042652  0.27438948  0.41124877     0.61980
F1047       F  0.58519228  0.24323521  0.09965872    -0.23180
F1048       F  0.61565557  0.21004161  0.08922402    -0.20510
F1049       F  0.57308269  0.20627091  0.06431981    -0.20190
F1050       F  0.64333092  0.29012002  0.41256817    -0.20240
F1051       F  0.59834709  0.29013579  0.39997412    -0.20560
F1052       F  0.62433386  0.25497405  0.38043843    -0.23240
C1053       C  0.74439770  0.13649332  0.03285590    -0.06070
C1054       C  0.75796271  0.13052663  0.49526161    -0.00150
C1055       C  0.74260714  0.12351793  0.45960933    -0.08720
C1056       C  0.71418699  0.12398197  0.46261122    -0.06100
C1057       C  0.70054767  0.13070553  0.49983359    -0.00160
C1058       C  0.71597552  0.13667449  0.03604050    -0.08630
C1059       C  0.70291122  0.14334471  0.07788181     0.61750
H1060       H  0.75636225  0.14139536  0.05994347     0.12440
H1061       H  0.70229143  0.11925140  0.43537985     0.12460
C1062       C  0.75582362  0.11517132  0.41859768     0.61980
F1063       F  0.72189971  0.14880933  0.10827045    -0.23180
F1064       F  0.68791392  0.12156674  0.09125998    -0.20510
F1065       F  0.68634861  0.16598548  0.07430318    -0.20190
F1066       F  0.77453144  0.09460186  0.42528632    -0.20240
F1067       F  0.76851252  0.13714482  0.40101171    -0.20560
F1068       F  0.73712912  0.10570847  0.39019072    -0.23240
C1069       C  0.74435031  0.35625442  0.46190891    -0.06070
C1070       C  0.75742769  0.36916056  0.49516709    -0.00150
C1071       C  0.74153575  0.38224026  0.02658078    -0.08720
C1072       C  0.71313550  0.38063460  0.02430934    -0.06100
C1073       C  0.70017314  0.36715696  0.49150511    -0.00160
C1074       C  0.71601801  0.35502898  0.45934166    -0.08630
C1075       C  0.70332937  0.33989621  0.42317934     0.61750
H1076       H  0.75660753  0.34659893  0.43797461     0.12440
H1077       H  0.70069739  0.39000271  0.04832995     0.12460
C1078       C  0.75410458  0.39827737  0.06197414     0.61980
F1079       F  0.72255249  0.32733419  0.39795455    -0.23180
F1080       F  0.68872923  0.35776107  0.39877936    -0.20510
F1081       F  0.68643466  0.32009666  0.43826312    -0.20190
F1082       F  0.77150273  0.41738671  0.04601653    -0.20240
F1083       F  0.76812910  0.38101819  0.08809537    -0.20560
F1084       F  0.73476000  0.41188516  0.08570010    -0.23240
C1085       C  0.86343686  0.26572384  0.47450986    -0.06070
C1086       C  0.84560194  0.27929816  0.50196085    -0.00150
C1087       C  0.82864656  0.26402384  0.02839967    -0.08720
C1088       C  0.82973001  0.23562581  0.02547020    -0.06100
C1089       C  0.84738718  0.22201846  0.49789798    -0.00160
C1090       C  0.86494266  0.23723887  0.47230198    -0.08630
C1091       C  0.88460584  0.22369456  0.44198941     0.61750
H1092       H  0.87635760  0.27773669  0.45476206     0.12440
H1093       H  0.81668803  0.22365080  0.04507678     0.12460
C1094       C  0.80892046  0.27738288  0.05885750     0.61980
F1095       F  0.89811673  0.24238567  0.41788787    -0.23180
F1096       F  0.87075925  0.20663227  0.41546941    -0.20510
F1097       F  0.90378568  0.20895123  0.46371709    -0.20190
F1098       F  0.79212478  0.29529349  0.03803157    -0.20240
F1099       F  0.82308455  0.29110534  0.08925886    -0.20560
F1100       F  0.79274107  0.25864156  0.07855126    -0.23240
In1101     In  0.91193929  0.43265953  0.64108977     1.36870
C1102       C  0.90822811  0.42944395  0.72356643     0.77290
O1103       O  0.95071483  0.41022321  0.65455621    -0.61160
O1104       O  0.95076959  0.44023657  0.60732139    -0.52070
C1105       C  0.88225240  0.40275582  0.58975296     0.69950
O1106       O  0.87382443  0.42474495  0.60525890    -0.46930
C1107       C  0.90336380  0.48512071  0.62933347     0.74660
O1108       O  0.89405275  0.41445466  0.70048902    -0.58790
O1109       O  0.91965778  0.47132595  0.60731253    -0.48880
O1110       O  0.92362339  0.44513896  0.70442099    -0.55220
C1111       C  0.96435368  0.42400259  0.62925615     0.84840
O1112       O  0.90522477  0.39526060  0.60212431    -0.57110
O1113       O  0.88940624  0.47164688  0.65457551    -0.60410
In1114     In  0.91057084  0.43361732  0.85169552     1.36870
C1115       C  0.90785015  0.42972129  0.76912452     0.77290
O1116       O  0.88839676  0.47250954  0.83794795    -0.61160
O1117       O  0.91790426  0.47254293  0.88593349    -0.52070
C1118       C  0.88062220  0.40367695  0.90261909     0.69950
O1119       O  0.90346439  0.39612138  0.88932686    -0.46930
C1120       C  0.96295681  0.42496204  0.86346374     0.74660
O1121       O  0.89315802  0.41515557  0.79196899    -0.58790
O1122       O  0.94930552  0.44148849  0.88532421    -0.48880
O1123       O  0.92306842  0.44550772  0.78852713    -0.55220
C1124       C  0.90204191  0.48618596  0.86345427     0.84840
O1125       O  0.87233180  0.42589301  0.88825623    -0.57110
O1126       O  0.94938034  0.41091438  0.83836035    -0.60410
In1127     In  0.84133887  0.36318218  0.99656038     1.36870
C1128       C  0.86715627  0.38790474  0.55813086     0.77290
O1129       O  0.83992445  0.32413503  0.53177163    -0.61160
O1130       O  0.84796332  0.32219760  0.96710090    -0.52070
C1131       C  0.78754097  0.36782892  0.99560464     0.69950
O1132       O  0.80151071  0.37194492  0.52762210    -0.46930
C1133       C  0.86575292  0.38854985  0.93417323     0.74660
O1134       O  0.84501136  0.39650779  0.54389210    -0.58790
O1135       O  0.87503295  0.36714395  0.94998727    -0.48880
O1136       O  0.87583999  0.36623935  0.54171085    -0.55220
C1137       C  0.84446635  0.30930804  0.50040755     0.84840
O1138       O  0.80137161  0.36151270  0.96377411    -0.57110
O1139       O  0.84344410  0.39656580  0.94913975    -0.60410
In1140     In  0.91122937  0.06724392  0.63968370     1.36870
C1141       C  0.90787620  0.06996535  0.72204813     0.77290
O1142       O  0.88899350  0.02887722  0.65393178    -0.61160
O1143       O  0.91998569  0.02782248  0.60761396    -0.52070
C1144       C  0.87972773  0.09685135  0.59014312     0.69950
O1145       O  0.89737008  0.10732368  0.61307308    -0.46930
C1146       C  0.96329628  0.07675808  0.62624391     0.74660
O1147       O  0.89170414  0.08337340  0.69957257    -0.58790
O1148       O  0.94993967  0.06081784  0.60379634    -0.48880
O1149       O  0.92469819  0.05548506  0.70238927    -0.55220
C1150       C  0.90336402  0.01473261  0.62926527     0.84840
O1151       O  0.87741835  0.07169661  0.59395062    -0.57110
O1152       O  0.94942724  0.09022910  0.65219887    -0.60410
In1153     In  0.91148936  0.06787231  0.84984696     1.36870
C1154       C  0.90811182  0.07030338  0.76750057     0.77290
O1155       O  0.95025182  0.08958604  0.83624499    -0.61160
O1156       O  0.95028847  0.05969904  0.88363592    -0.52070
C1157       C  0.88104098  0.09946610  0.89916663     0.69950
O1158       O  0.87299010  0.07726600  0.88478512    -0.46930
C1159       C  0.90233014  0.01579859  0.86293017     0.74660
O1160       O  0.89313679  0.08509778  0.79036952    -0.58790
O1161       O  0.91815512  0.02935673  0.88533734    -0.48880
O1162       O  0.92423610  0.05513239  0.78675556    -0.55220
C1163       C  0.96387994  0.07570474  0.86166263     0.84840
O1164       O  0.90413790  0.10626317  0.88681390    -0.57110
O1165       O  0.88923622  0.02938713  0.83658413    -0.60410
In1166     In  0.84139049  0.13811908  0.99585704     1.36870
C1167       C  0.86443949  0.11208430  0.55912927     0.77290
O1168       O  0.80175356  0.13189716  0.52817473    -0.61160
O1169       O  0.80190672  0.13626778  0.96244745    -0.52070
C1170       C  0.84574281  0.19208057  0.99622047     0.69950
O1171       O  0.86552469  0.17642895  0.48922392    -0.46930
C1172       C  0.86568125  0.11489684  0.93044294     0.74660
O1173       O  0.86515959  0.13742811  0.55592930    -0.58790
O1174       O  0.84347480  0.10690052  0.94472534    -0.48880
O1175       O  0.85072797  0.10044212  0.53172489    -0.55220
C1176       C  0.78799914  0.13256640  0.49504916     0.84840
O1177       O  0.82387230  0.18003157  0.00273118    -0.57110
O1178       O  0.87452251  0.13600924  0.94743323    -0.60410
In1179     In  0.54609663  0.43254601  0.64114351     1.36870
C1180       C  0.54909317  0.42919121  0.72368312     0.77290
O1181       O  0.56805028  0.47136096  0.65389391    -0.61160
O1182       O  0.53743306  0.47124538  0.60755320    -0.52070
C1183       C  0.57662215  0.40237953  0.58981756     0.69950
O1184       O  0.55449949  0.39437509  0.60441066    -0.46930
C1185       C  0.49391694  0.42395152  0.62922070     0.74660
O1186       O  0.56382898  0.41423977  0.70065095    -0.58790
O1187       O  0.50730902  0.44001155  0.60709902    -0.48880
O1188       O  0.53383584  0.44525254  0.70447889    -0.55220
C1189       C  0.55377593  0.48490986  0.62887017     0.84840
O1190       O  0.58394036  0.42511956  0.60317059    -0.57110
O1191       O  0.50768983  0.41026867  0.65465747    -0.60410
In1192     In  0.54495454  0.43243191  0.85180306     1.36870
C1193       C  0.54865964  0.42896871  0.76924645     0.77290
O1194       O  0.50640407  0.41034730  0.83850839    -0.61160
O1195       O  0.00589632  0.44125305  0.88501779    -0.52070
C1196       C  0.57477746  0.40237170  0.90318841     0.69950
O1197       O  0.58310312  0.42405214  0.88769258    -0.46930
C1198       C  0.55396410  0.48466348  0.86351039     0.74660
O1199       O  0.56282574  0.41366860  0.79208855    -0.58790
O1200       O  0.53746208  0.47169086  0.88553360    -0.48880
O1201       O  0.53319621  0.44500779  0.78864823    -0.55220
C1202       C  0.99254174  0.42476139  0.86341925     0.84840
O1203       O  0.55182471  0.39525085  0.89083372    -0.57110
O1204       O  0.56782273  0.47043868  0.83840759    -0.60410
In1205     In  0.61646262  0.36185802  0.99488509     1.36870
C1206       C  0.59173601  0.38720768  0.55790751     0.77290
O1207       O  0.65697778  0.36464816  0.52645525    -0.61160
O1208       O  0.65575759  0.36490309  0.96069097    -0.52070
C1209       C  0.61276176  0.30793561  0.99148092     0.69950
O1210       O  0.61424072  0.32100937  0.52522457    -0.46930
C1211       C  0.59002976  0.38736607  0.93457179     0.74660
O1212       O  0.58388129  0.36481816  0.54374686    -0.58790
O1213       O  0.61259686  0.39510216  0.94786900    -0.48880
O1214       O  0.61278975  0.39618281  0.54094036    -0.55220
C1215       C  0.67020537  0.36551539  0.49281925     0.84840
O1216       O  0.61319937  0.32266726  0.95969471    -0.57110
O1217       O  0.58114845  0.36632875  0.95152690    -0.60410
In1218     In  0.54512716  0.06718366  0.63935454     1.36870
C1219       C  0.54869640  0.07041015  0.72201944     0.77290
O1220       O  0.50633122  0.08996353  0.65257844    -0.61160
O1221       O  0.00664007  0.06024111  0.60437013    -0.52070
C1222       C  0.57545393  0.09641265  0.58799844     0.69950
O1223       O  0.58261929  0.07340729  0.60067495    -0.46930
C1224       C  0.55356883  0.01452856  0.62834058     0.74660
O1225       O  0.56322710  0.08506030  0.69905099    -0.58790
O1226       O  0.53685186  0.02787999  0.60690414    -0.48880
O1227       O  0.53293036  0.05512144  0.70269886    -0.55220
C1228       C  0.99289314  0.07651485  0.62652781     0.84840
O1229       O  0.55353238  0.10516703  0.60321109    -0.57110
O1230       O  0.56786027  0.02848862  0.65258634    -0.60410
In1231     In  0.54601195  0.06663550  0.85031334     1.36870
C1232       C  0.54911541  0.07006621  0.76762729     0.77290
O1233       O  0.56809269  0.02740142  0.83725718    -0.61160
O1234       O  0.53816270  0.02833546  0.88504901    -0.52070
C1235       C  0.57625443  0.09637582  0.90136346     0.69950
O1236       O  0.55333409  0.10401745  0.88894298    -0.46930
C1237       C  0.49349070  0.07550047  0.86188950     0.74660
O1238       O  0.56339722  0.08502136  0.79059802    -0.58790
O1239       O  0.50695540  0.05915108  0.88378704    -0.48880
O1240       O  0.53425483  0.05395418  0.78695131    -0.55220
C1241       C  0.55422766  0.01425364  0.86306274     0.84840
O1242       O  0.58443701  0.07424344  0.88602451    -0.57110
O1243       O  0.50730941  0.08933775  0.83691867    -0.60410
In1244     In  0.61644679  0.13631361  0.99524808     1.36870
C1245       C  0.59068290  0.11114843  0.55643545     0.77290
O1246       O  0.61239088  0.17628769  0.52785262    -0.61160
O1247       O  0.61395052  0.17626366  0.96225608    -0.52070
C1248       C  0.67039818  0.13258755  0.99847946     0.69950
O1249       O  0.65547681  0.13297252  0.53032534    -0.46930
C1250       C  0.59139131  0.11129144  0.93298248     0.74660
O1251       O  0.61206104  0.10179777  0.54006265    -0.58790
O1252       O  0.58252012  0.13289700  0.94930375    -0.48880
O1253       O  0.58280631  0.13359752  0.54226350    -0.55220
C1254       C  0.61203059  0.19017946  0.49516059     0.84840
O1255       O  0.65743546  0.13345681  0.96475741    -0.57110
O1256       O  0.61357498  0.10287876  0.94745343    -0.60410
C1257       C  0.60426310  0.26465131  0.52749485    -0.06070
C1258       C  0.61069841  0.27783183  0.99013287    -0.00150
C1259       C  0.61528671  0.26192594  0.95364558    -0.08720
C1260       C  0.61525923  0.23351291  0.95700881    -0.06100
C1261       C  0.60994569  0.22040507  0.99482142    -0.00160
C1262       C  0.60320411  0.23626153  0.53043871    -0.08630
C1263       C  0.59427006  0.22376344  0.57131273     0.61750
H1264       H  0.59998196  0.27693010  0.55479816     0.12440
H1265       H  0.61972057  0.22120639  0.92981098     0.12460
C1266       C  0.62039435  0.27443867  0.91125166     0.61980
F1267       F  0.58521795  0.24314721  0.59961653    -0.23180
F1268       F  0.61571074  0.20997243  0.58923842    -0.20510
F1269       F  0.57316302  0.20617869  0.56424272    -0.20190
F1270       F  0.64331875  0.29013908  0.91260773    -0.20240
F1271       F  0.59834290  0.29021289  0.89994180    -0.20560
F1272       F  0.62429861  0.25501881  0.88044676    -0.23240
C1273       C  0.74439308  0.13619684  0.53289985    -0.06070
C1274       C  0.75796328  0.13078725  0.99522556    -0.00150
C1275       C  0.74259856  0.12382027  0.95956531    -0.08720
C1276       C  0.71417874  0.12435734  0.96254889    -0.06100
C1277       C  0.70054385  0.13105393  0.99978626    -0.00160
C1278       C  0.71597219  0.13636126  0.53607974    -0.08630
C1279       C  0.70289856  0.14309938  0.57788944     0.61750
H1280       H  0.75635125  0.14112376  0.55998353     0.12440
H1281       H  0.70228138  0.11965639  0.93530880     0.12460
C1282       C  0.75580596  0.11538151  0.91859004     0.61980
F1283       F  0.72187979  0.14861596  0.60826568    -0.23180
F1284       F  0.68789431  0.12134666  0.59134684    -0.20510
F1285       F  0.68634037  0.16573587  0.57420961    -0.20190
F1286       F  0.77441946  0.09473899  0.92536269    -0.20240
F1287       F  0.76860340  0.13727788  0.90096461    -0.20560
F1288       F  0.73708889  0.10596947  0.89017874    -0.23240
C1289       C  0.74435341  0.35625638  0.96191057    -0.06070
C1290       C  0.75743150  0.36916287  0.99516783    -0.00150
C1291       C  0.74153047  0.38223586  0.52658057    -0.08720
C1292       C  0.71312984  0.38062573  0.52431112    -0.06100
C1293       C  0.70017796  0.36716750  0.99150311    -0.00160
C1294       C  0.71602113  0.35503458  0.95934233    -0.08630
C1295       C  0.70333071  0.33990038  0.92318287     0.61750
H1296       H  0.75660988  0.34659826  0.93797777     0.12440
H1297       H  0.70069096  0.38999096  0.54833343     0.12460
C1298       C  0.75409847  0.39827498  0.56197249     0.61980
F1299       F  0.72255246  0.32733374  0.89796086    -0.23180
F1300       F  0.68873283  0.35776464  0.89877883    -0.20510
F1301       F  0.68643343  0.32010440  0.93827083    -0.20190
F1302       F  0.77149534  0.41738498  0.54601324    -0.20240
F1303       F  0.76812447  0.38101765  0.58809470    -0.20560
F1304       F  0.73475306  0.41188223  0.58569751    -0.23240
C1305       C  0.86345874  0.26573976  0.97451141    -0.06070
C1306       C  0.84562084  0.27930991  0.00196363    -0.00150
C1307       C  0.82861894  0.26401458  0.52838766    -0.08720
C1308       C  0.82968257  0.23561544  0.52543763    -0.06100
C1309       C  0.84743806  0.22203322  0.99793141    -0.00160
C1310       C  0.86497673  0.23725541  0.97231372    -0.08630
C1311       C  0.88463000  0.22371219  0.94198543     0.61750
H1312       H  0.87636981  0.27775492  0.95475214     0.12440
H1313       H  0.81663125  0.22364323  0.54503315     0.12460
C1314       C  0.80890640  0.27737904  0.55886006     0.61980
F1315       F  0.89812792  0.24240393  0.91786804    -0.23180
F1316       F  0.87077524  0.20664570  0.91548184    -0.20510
F1317       F  0.90382041  0.20897285  0.96369752    -0.20190
F1318       F  0.79211410  0.29529987  0.53804824    -0.20240
F1319       F  0.82308441  0.29109165  0.58925667    -0.20560
F1320       F  0.79272368  0.25864300  0.57855872    -0.23240
In1321     In  0.91194032  0.93265842  0.14109163     1.36870
C1322       C  0.90822827  0.92944320  0.22356836     0.77290
O1323       O  0.95071634  0.91022279  0.15455744    -0.61160
O1324       O  0.95076954  0.94023616  0.10732251    -0.52070
C1325       C  0.88225277  0.90275698  0.08975476     0.69950
O1326       O  0.87382539  0.92474615  0.10526124    -0.46930
C1327       C  0.90336951  0.98511950  0.12933171     0.74660
O1328       O  0.89405301  0.91445393  0.20049075    -0.58790
O1329       O  0.91966084  0.97132239  0.10730981    -0.48880
O1330       O  0.92362380  0.94513804  0.20442305    -0.55220
C1331       C  0.96435444  0.92400339  0.12925793     0.84840
O1332       O  0.90522444  0.89526000  0.10212691    -0.57110
O1333       O  0.88941151  0.97164805  0.15457636    -0.60410
In1334     In  0.91057026  0.93361629  0.35169807     1.36870
C1335       C  0.90784998  0.92972065  0.26912656     0.77290
O1336       O  0.88839308  0.97250658  0.33795045    -0.61160
O1337       O  0.91790169  0.97254337  0.38593432    -0.52070
C1338       C  0.88062180  0.90367402  0.40262175     0.69950
O1339       O  0.90346438  0.89611959  0.38932962    -0.46930
C1340       C  0.96295672  0.92496049  0.36346573     0.74660
O1341       O  0.89315825  0.91515443  0.29197087    -0.58790
O1342       O  0.94930590  0.94148772  0.38532566    -0.48880
O1343       O  0.92306764  0.94550753  0.28852949    -0.55220
C1344       C  0.90203739  0.98618464  0.36345566     0.84840
O1345       O  0.87233123  0.92589023  0.38825955    -0.57110
O1346       O  0.94937975  0.91091350  0.33836216    -0.60410
In1347     In  0.84133705  0.86317597  0.49656223     1.36870
C1348       C  0.86715709  0.88790801  0.05813060     0.77290
O1349       O  0.83993091  0.82414388  0.03177027    -0.61160
O1350       O  0.84795957  0.82218875  0.46710424    -0.52070
C1351       C  0.78753788  0.86782692  0.49560484     0.69950
O1352       O  0.80151376  0.87194752  0.02762154    -0.46930
C1353       C  0.86575206  0.88854543  0.43417475     0.74660
O1354       O  0.84501354  0.89651332  0.04388980    -0.58790
O1355       O  0.87503202  0.86713936  0.44998856    -0.48880
O1356       O  0.87584028  0.86624251  0.04171046    -0.55220
C1357       C  0.84447480  0.80931782  0.00040606     0.84840
O1358       O  0.80136912  0.86151018  0.46377501    -0.57110
O1359       O  0.84344259  0.89656007  0.44914043    -0.60410
In1360     In  0.91124438  0.56724195  0.13967734     1.36870
C1361       C  0.90788435  0.56996502  0.22204084     0.77290
O1362       O  0.88900700  0.52887740  0.15393113    -0.61160
O1363       O  0.91999421  0.52781916  0.10760599    -0.52070
C1364       C  0.87973876  0.59685612  0.09014923     0.69950
O1365       O  0.89739298  0.60732192  0.11306436    -0.46930
C1366       C  0.96331355  0.57675501  0.12623045     0.74660
O1367       O  0.89171743  0.58337592  0.19956118    -0.58790
O1368       O  0.94995451  0.56081683  0.10378251    -0.48880
O1369       O  0.92470745  0.55548326  0.20238656    -0.55220
C1370       C  0.90337339  0.51473119  0.12926174     0.84840
O1371       O  0.87742113  0.57170236  0.09396109    -0.57110
O1372       O  0.94944661  0.59022113  0.15219422    -0.60410
In1373     In  0.91147904  0.56787033  0.34983837     1.36870
C1374       C  0.90811223  0.57030123  0.26749285     0.77290
O1375       O  0.95023696  0.58958795  0.33623337    -0.61160
O1376       O  0.95027753  0.55969792  0.38362183    -0.52070
C1377       C  0.88103131  0.59946405  0.39915247     0.69950
O1378       O  0.87297377  0.57727216  0.38474988    -0.46930
C1379       C  0.90232251  0.51579731  0.36292999     0.74660
O1380       O  0.89313561  0.58509737  0.29035684    -0.58790
O1381       O  0.91814619  0.52935772  0.38533602    -0.48880
O1382       O  0.92423089  0.55512696  0.28675250    -0.55220
C1383       C  0.96386667  0.57570407  0.36164569     0.84840
O1384       O  0.90413535  0.60625414  0.38682284    -0.57110
O1385       O  0.88922753  0.52938364  0.33658248    -0.60410
In1386     In  0.84136491  0.63809398  0.49584281     1.36870
C1387       C  0.86444799  0.61209689  0.05914593     0.77290
O1388       O  0.80175323  0.63200346  0.02816488    -0.61160
O1389       O  0.80187680  0.63615716  0.46245568    -0.52070
C1390       C  0.84568960  0.69206338  0.49618436     0.69950
O1391       O  0.86557502  0.67644215  0.98925443    -0.46930
C1392       C  0.86566968  0.61489110  0.43042801     0.74660
O1393       O  0.86521203  0.63743685  0.05591292    -0.58790
O1394       O  0.84344908  0.60690610  0.44467089    -0.48880
O1395       O  0.85069388  0.60046586  0.03178031    -0.55220
C1396       C  0.78800817  0.63272159  0.99503233     0.84840
O1397       O  0.82382112  0.68000712  0.50269213    -0.57110
O1398       O  0.87452119  0.63598515  0.44745876    -0.60410
In1399     In  0.54609629  0.93255507  0.14115020     1.36870
C1400       C  0.54909354  0.92919436  0.22368843     0.77290
O1401       O  0.56805219  0.97136898  0.15389602    -0.61160
O1402       O  0.53743807  0.97125261  0.10755061    -0.52070
C1403       C  0.57662509  0.90239833  0.08982319     0.69950
O1404       O  0.55450297  0.89438880  0.10441138    -0.46930
C1405       C  0.49391748  0.92395598  0.12922450     0.74660
O1406       O  0.56382747  0.91424315  0.20065321    -0.58790
O1407       O  0.50730792  0.94002007  0.10710766    -0.48880
O1408       O  0.53383846  0.94526000  0.20448767    -0.55220
C1409       C  0.55378408  0.98491670  0.12886253     0.84840
O1410       O  0.58394150  0.92513648  0.10318459    -0.57110
O1411       O  0.50769145  0.91027267  0.15465907    -0.60410
In1412     In  0.54495550  0.93242296  0.35181009     1.36870
C1413       C  0.54865953  0.92896636  0.26925174     0.77290
O1414       O  0.50640330  0.91034324  0.33851051    -0.61160
O1415       O  0.00589771  0.94124558  0.38502560    -0.52070
C1416       C  0.57477447  0.90235200  0.40319426     0.69950
O1417       O  0.58310239  0.92403443  0.38770650    -0.46930
C1418       C  0.55395942  0.98465602  0.36350464     0.74660
O1419       O  0.56282757  0.91366586  0.29209060    -0.58790
O1420       O  0.53746020  0.97168379  0.38553331    -0.48880
O1421       O  0.53319392  0.94500110  0.28865719    -0.55220
C1422       C  0.99254182  0.92475714  0.36342297     0.84840
O1423       O  0.55182095  0.89523675  0.39083524    -0.57110
O1424       O  0.56782285  0.97042963  0.33841018    -0.60410
In1425     In  0.61645686  0.86181880  0.49488606     1.36870
C1426       C  0.59174019  0.88723500  0.05790848     0.77290
O1427       O  0.65698286  0.86467492  0.02645166    -0.61160
O1428       O  0.65575195  0.86488118  0.46069496    -0.52070
C1429       C  0.61278223  0.80788421  0.49148262     0.69950
O1430       O  0.61424263  0.82105628  0.02522390    -0.46930
C1431       C  0.59002542  0.88733747  0.43457279     0.74660
O1432       O  0.58389245  0.86484269  0.04375023    -0.58790
O1433       O  0.61259680  0.89506377  0.44786528    -0.48880
O1434       O  0.61278712  0.89622088  0.04093461    -0.55220
C1435       C  0.67021058  0.86553450  0.99281555     0.84840
O1436       O  0.61321872  0.82261760  0.45969762    -0.57110
O1437       O  0.58113964  0.86630180  0.45152833    -0.60410
In1438     In  0.54514855  0.56719025  0.13932220     1.36870
C1439       C  0.54870230  0.57041089  0.22198857     0.77290
O1440       O  0.50635020  0.58996358  0.15255508    -0.61160
O1441       O  0.00665964  0.56025013  0.10433457    -0.52070
C1442       C  0.57547610  0.59643974  0.08798886     0.69950
O1443       O  0.58264420  0.57342904  0.10064112    -0.46930
C1444       C  0.55358732  0.51453519  0.12831683     0.74660
O1445       O  0.56323983  0.58506060  0.19902960    -0.58790
O1446       O  0.53687882  0.52788750  0.10686591    -0.48880
O1447       O  0.53294065  0.55512334  0.20265807    -0.55220
C1448       C  0.99291143  0.57651680  0.12650326     0.84840
O1449       O  0.55355286  0.60518329  0.10320958    -0.57110
O1450       O  0.56787794  0.52849524  0.15256404    -0.60410
In1451     In  0.54599404  0.56662695  0.35027847     1.36870
C1452       C  0.54910919  0.57006583  0.26759615     0.77290
O1453       O  0.56807617  0.52739223  0.33723018    -0.61160
O1454       O  0.53814489  0.52832823  0.38501858    -0.52070
C1455       C  0.57623691  0.59635062  0.40133854     0.69950
O1456       O  0.55330882  0.60399190  0.38895084    -0.46930
C1457       C  0.49347634  0.57549565  0.36186203     0.74660
O1458       O  0.56338352  0.58502245  0.29057549    -0.58790
O1459       O  0.50694011  0.55914002  0.38374956    -0.48880
O1460       O  0.53424577  0.55395107  0.28691040    -0.55220
C1461       C  0.55421414  0.51424604  0.36304095     0.84840
O1462       O  0.58442482  0.57423276  0.38595752    -0.57110
O1463       O  0.50729404  0.58933464  0.33689163    -0.60410
In1464     In  0.61647256  0.63622098  0.49524039     1.36870
C1465       C  0.59069831  0.61119678  0.05644013     0.77290
O1466       O  0.61227469  0.67636418  0.02785464    -0.61160
O1467       O  0.61408272  0.67619136  0.46226043    -0.52070
C1468       C  0.67040737  0.63230673  0.49850107     0.69950
O1469       O  0.65547725  0.63325404  0.03031377    -0.46930
C1470       C  0.59138082  0.61124613  0.43296741     0.74660
O1471       O  0.61208575  0.60187153  0.04005923    -0.58790
O1472       O  0.58250979  0.63283231  0.44934835    -0.48880
O1473       O  0.58280014  0.63364305  0.04228596    -0.55220
C1474       C  0.61189576  0.69025048  0.99515775     0.84840
O1475       O  0.65746196  0.63326992  0.46476897    -0.57110
O1476       O  0.61357605  0.60282985  0.44738705    -0.60410
C1477       C  0.60419906  0.76471911  0.02749680    -0.06070
C1478       C  0.61075227  0.77777371  0.49013454    -0.00150
C1479       C  0.61536235  0.76187006  0.45364987    -0.08720
C1480       C  0.61538559  0.73345439  0.45701869    -0.06100
C1481       C  0.61007713  0.72033842  0.49482755    -0.00160
C1482       C  0.60311250  0.73633255  0.03044402    -0.08630
C1483       C  0.59420664  0.72384351  0.07133993     0.61750
H1484       H  0.59994080  0.77700260  0.05480318     0.12440
H1485       H  0.61986934  0.72115256  0.42982419     0.12460
C1486       C  0.62042651  0.77438948  0.41124879     0.61980
F1487       F  0.58519231  0.74323519  0.09965871    -0.23180
F1488       F  0.61565560  0.71004159  0.08922400    -0.20510
F1489       F  0.57308272  0.70627089  0.06431980    -0.20190
F1490       F  0.64333091  0.79012002  0.41256818    -0.20240
F1491       F  0.59834708  0.79013579  0.39997414    -0.20560
F1492       F  0.62433385  0.75497404  0.38043845    -0.23240
C1493       C  0.74439771  0.63649328  0.03285576    -0.06070
C1494       C  0.75796272  0.63052665  0.49526175    -0.00150
C1495       C  0.74260714  0.62351792  0.45960948    -0.08720
C1496       C  0.71418700  0.62398197  0.46261136    -0.06100
C1497       C  0.70054768  0.63070555  0.49983372    -0.00160
C1498       C  0.71597553  0.63667443  0.03604038    -0.08630
C1499       C  0.70291123  0.64334460  0.07788172     0.61750
H1500       H  0.75636225  0.64139530  0.05994334     0.12440
H1501       H  0.70229143  0.61925138  0.43537999     0.12460
C1502       C  0.75582362  0.61517129  0.41859782     0.61980
F1503       F  0.72189973  0.64880919  0.10827036    -0.23180
F1504       F  0.68791394  0.62156662  0.09125984    -0.20510
F1505       F  0.68634862  0.66598538  0.07430316    -0.20190
F1506       F  0.77453143  0.59460183  0.42528647    -0.20240
F1507       F  0.76851252  0.63714478  0.40101183    -0.20560
F1508       F  0.73712910  0.60570845  0.39019087    -0.23240
C1509       C  0.74435031  0.85625442  0.46190891    -0.06070
C1510       C  0.75742768  0.86916056  0.49516709    -0.00150
C1511       C  0.74153575  0.88224026  0.02658075    -0.08720
C1512       C  0.71313549  0.88063459  0.02430930    -0.06100
C1513       C  0.70017314  0.86715697  0.49150511    -0.00160
C1514       C  0.71601801  0.85502898  0.45934167    -0.08630
C1515       C  0.70332937  0.83989622  0.42317935     0.61750
H1516       H  0.75660752  0.84659893  0.43797462     0.12440
H1517       H  0.70069738  0.89000270  0.04832991     0.12460
C1518       C  0.75410457  0.89827736  0.06197412     0.61980
F1519       F  0.72255249  0.82733419  0.39795456    -0.23180
F1520       F  0.68872923  0.85776107  0.39877937    -0.20510
F1521       F  0.68643465  0.82009666  0.43826313    -0.20190
F1522       F  0.77150273  0.91738670  0.04601651    -0.20240
F1523       F  0.76812908  0.88101819  0.08809536    -0.20560
F1524       F  0.73475999  0.91188517  0.08570006    -0.23240
C1525       C  0.86343689  0.76572384  0.47450984    -0.06070
C1526       C  0.84560195  0.77929815  0.50196080    -0.00150
C1527       C  0.82864656  0.76402388  0.02839978    -0.08720
C1528       C  0.82973003  0.73562584  0.02547037    -0.06100
C1529       C  0.84738719  0.72201847  0.49789790    -0.00160
C1530       C  0.86494269  0.73723887  0.47230194    -0.08630
C1531       C  0.88460586  0.72369454  0.44198938     0.61750
H1532       H  0.87635764  0.77773669  0.45476205     0.12440
H1533       H  0.81668807  0.72365086  0.04507702     0.12460
C1534       C  0.80892047  0.77738293  0.05885759     0.61980
F1535       F  0.89811676  0.74238564  0.41788785    -0.23180
F1536       F  0.87075925  0.70663226  0.41546939    -0.20510
F1537       F  0.90378568  0.70895119  0.46371707    -0.20190
F1538       F  0.79212478  0.79529353  0.03803162    -0.20240
F1539       F  0.82308454  0.79110541  0.08925893    -0.20560
F1540       F  0.79274107  0.75864162  0.07855137    -0.23240
In1541     In  0.91193928  0.93265953  0.64108978     1.36870
C1542       C  0.90822810  0.92944396  0.72356644     0.77290
O1543       O  0.95071482  0.91022321  0.65455621    -0.61160
O1544       O  0.95076958  0.94023657  0.60732140    -0.52070
C1545       C  0.88225239  0.90275583  0.58975297     0.69950
O1546       O  0.87382443  0.92474496  0.60525888    -0.46930
C1547       C  0.90336380  0.98512072  0.62933348     0.74660
O1548       O  0.89405272  0.91445468  0.70048903    -0.58790
O1549       O  0.91965778  0.97132595  0.60731254    -0.48880
O1550       O  0.92362339  0.94513896  0.70442100    -0.55220
C1551       C  0.96435367  0.92400259  0.62925615     0.84840
O1552       O  0.90522474  0.89526059  0.60212435    -0.57110
O1553       O  0.88940624  0.97164689  0.65457552    -0.60410
In1554     In  0.91057084  0.93361733  0.85169553     1.36870
C1555       C  0.90785014  0.92972130  0.76912453     0.77290
O1556       O  0.88839678  0.97250956  0.83794796    -0.61160
O1557       O  0.91790428  0.97254294  0.88593351    -0.52070
C1558       C  0.88062220  0.90367696  0.90261909     0.69950
O1559       O  0.90346438  0.89612137  0.88932683    -0.46930
C1560       C  0.96295682  0.92496205  0.86346375     0.74660
O1561       O  0.89315800  0.91515559  0.79196901    -0.58790
O1562       O  0.94930553  0.94148849  0.88532422    -0.48880
O1563       O  0.92306843  0.94550772  0.78852713    -0.55220
C1564       C  0.90204194  0.98618598  0.86345427     0.84840
O1565       O  0.87233182  0.92589304  0.88825627    -0.57110
O1566       O  0.94938034  0.91091440  0.83836036    -0.60410
In1567     In  0.84133887  0.86318219  0.99656038     1.36870
C1568       C  0.86715627  0.88790474  0.55813086     0.77290
O1569       O  0.83992445  0.82413502  0.53177161    -0.61160
O1570       O  0.84796330  0.82219761  0.96710093    -0.52070
C1571       C  0.78754097  0.86782893  0.99560462     0.69950
O1572       O  0.80151071  0.87194489  0.52762211    -0.46930
C1573       C  0.86575292  0.88854986  0.93417324     0.74660
O1574       O  0.84501136  0.89650781  0.54389207    -0.58790
O1575       O  0.87503293  0.86714394  0.94998723    -0.48880
O1576       O  0.87583998  0.86623934  0.54171087    -0.55220
C1577       C  0.84446635  0.80930804  0.50040752     0.84840
O1578       O  0.80137162  0.86151275  0.96377409    -0.57110
O1579       O  0.84344412  0.89656583  0.94913979    -0.60410
In1580     In  0.91122934  0.56724392  0.63968369     1.36870
C1581       C  0.90787616  0.56996534  0.72204813     0.77290
O1582       O  0.88899348  0.52887721  0.65393177    -0.61160
O1583       O  0.91998567  0.52782248  0.60761395    -0.52070
C1584       C  0.87972768  0.59685136  0.59014313     0.69950
O1585       O  0.89737001  0.60732368  0.61307312    -0.46930
C1586       C  0.96329625  0.57675808  0.62624391     0.74660
O1587       O  0.89170409  0.58337339  0.69957256    -0.58790
O1588       O  0.94993965  0.56081785  0.60379632    -0.48880
O1589       O  0.92469815  0.55548505  0.70238927    -0.55220
C1590       C  0.90336401  0.51473261  0.62926526     0.84840
O1591       O  0.87741833  0.57169661  0.59395058    -0.57110
O1592       O  0.94942721  0.59022910  0.65219887    -0.60410
In1593     In  0.91148929  0.56787229  0.84984697     1.36870
C1594       C  0.90811177  0.57030337  0.76750057     0.77290
O1595       O  0.95025176  0.58958603  0.83624500    -0.61160
O1596       O  0.95028840  0.55969903  0.88363593    -0.52070
C1597       C  0.88104090  0.59946606  0.89916665     0.69950
O1598       O  0.87299002  0.57726598  0.88478511    -0.46930
C1599       C  0.90233009  0.51579857  0.86293017     0.74660
O1600       O  0.89313674  0.58509777  0.79036952    -0.58790
O1601       O  0.91815507  0.52935672  0.88533734    -0.48880
O1602       O  0.92423604  0.55513238  0.78675556    -0.55220
C1603       C  0.96387987  0.57570473  0.86166264     0.84840
O1604       O  0.90413783  0.60626313  0.88681394    -0.57110
O1605       O  0.88923617  0.52938711  0.83658413    -0.60410
In1606     In  0.84139048  0.63811905  0.99585711     1.36870
C1607       C  0.86443943  0.61208431  0.55912929     0.77290
O1608       O  0.80175358  0.63189733  0.52817485    -0.61160
O1609       O  0.80190672  0.63626796  0.96244738    -0.52070
C1610       C  0.84574278  0.69208055  0.99622068     0.69950
O1611       O  0.86552483  0.67642896  0.48922467    -0.46930
C1612       C  0.86568119  0.61489680  0.93044299     0.74660
O1613       O  0.86515948  0.63742812  0.55592939    -0.58790
O1614       O  0.84347469  0.60690054  0.94472531    -0.48880
O1615       O  0.85072797  0.60044213  0.53172483    -0.55220
C1616       C  0.78799915  0.63256642  0.49504928     0.84840
O1617       O  0.82387246  0.68003151  0.00273270    -0.57110
O1618       O  0.87452252  0.63600913  0.94743338    -0.60410
In1619     In  0.54609662  0.93254602  0.64114350     1.36870
C1620       C  0.54909316  0.92919122  0.72368311     0.77290
O1621       O  0.56805028  0.97136097  0.65389390    -0.61160
O1622       O  0.53743305  0.97124539  0.60755319    -0.52070
C1623       C  0.57662214  0.90237955  0.58981754     0.69950
O1624       O  0.55449948  0.89437510  0.60441065    -0.46930
C1625       C  0.49391693  0.92395152  0.62922068     0.74660
O1626       O  0.56382897  0.91423978  0.70065093    -0.58790
O1627       O  0.50730901  0.94001156  0.60709901    -0.48880
O1628       O  0.53383583  0.94525255  0.70447888    -0.55220
C1629       C  0.55377593  0.98490987  0.62887015     0.84840
O1630       O  0.58394035  0.92511958  0.60317057    -0.57110
O1631       O  0.50768982  0.91026867  0.65465745    -0.60410
In1632     In  0.54495455  0.93243192  0.85180304     1.36870
C1633       C  0.54865963  0.92896872  0.76924644     0.77290
O1634       O  0.50640408  0.91034731  0.83850839    -0.61160
O1635       O  0.00589633  0.94125306  0.88501779    -0.52070
C1636       C  0.57477747  0.90237170  0.90318839     0.69950
O1637       O  0.58310313  0.92405213  0.88769257    -0.46930
C1638       C  0.55396414  0.98466348  0.86351037     0.74660
O1639       O  0.56282574  0.91366861  0.79208853    -0.58790
O1640       O  0.53746212  0.97169087  0.88553358    -0.48880
O1641       O  0.53319621  0.94500780  0.78864822    -0.55220
C1642       C  0.99254174  0.92476140  0.86341925     0.84840
O1643       O  0.55182472  0.89525085  0.89083370    -0.57110
O1644       O  0.56782276  0.97043868  0.83840756    -0.60410
In1645     In  0.61646262  0.86185801  0.99488505     1.36870
C1646       C  0.59173600  0.88720769  0.55790750     0.77290
O1647       O  0.65697778  0.86464817  0.52645525    -0.61160
O1648       O  0.65575759  0.86490306  0.96069093    -0.52070
C1649       C  0.61276177  0.80793559  0.99148090     0.69950
O1650       O  0.61424071  0.82100938  0.52522458    -0.46930
C1651       C  0.59002977  0.88736606  0.93457177     0.74660
O1652       O  0.58388128  0.86481817  0.54374686    -0.58790
O1653       O  0.61259687  0.89510215  0.94786898    -0.48880
O1654       O  0.61278974  0.89618282  0.54094035    -0.55220
C1655       C  0.67020536  0.86551540  0.49281926     0.84840
O1656       O  0.61319936  0.82266724  0.95969468    -0.57110
O1657       O  0.58114845  0.86632874  0.95152687    -0.60410
In1658     In  0.54512715  0.56718365  0.63935457     1.36870
C1659       C  0.54869636  0.57041014  0.72201947     0.77290
O1660       O  0.50633120  0.58996352  0.65257847    -0.61160
O1661       O  0.00664004  0.56024110  0.60437015    -0.52070
C1662       C  0.57545392  0.59641265  0.58799849     0.69950
O1663       O  0.58261928  0.57340729  0.60067500    -0.46930
C1664       C  0.55356883  0.51452856  0.62834059     0.74660
O1665       O  0.56322706  0.58506030  0.69905103    -0.58790
O1666       O  0.53685185  0.52787998  0.60690416    -0.48880
O1667       O  0.53293034  0.55512142  0.70269888    -0.55220
C1668       C  0.99289312  0.57651485  0.62652782     0.84840
O1669       O  0.55353236  0.60516702  0.60321111    -0.57110
O1670       O  0.56786026  0.52848861  0.65258636    -0.60410
In1671     In  0.54601188  0.56663550  0.85031337     1.36870
C1672       C  0.54911535  0.57006620  0.76762732     0.77290
O1673       O  0.56809263  0.52740143  0.83725720    -0.61160
O1674       O  0.53816264  0.52833545  0.88504903    -0.52070
C1675       C  0.57625437  0.59637581  0.90136348     0.69950
O1676       O  0.55333403  0.60401745  0.88894300    -0.46930
C1677       C  0.49349062  0.57550046  0.86188952     0.74660
O1678       O  0.56339714  0.58502136  0.79059806    -0.58790
O1679       O  0.50695532  0.55915107  0.88378706    -0.48880
O1680       O  0.53425478  0.55395416  0.78695133    -0.55220
C1681       C  0.55422760  0.51425364  0.86306277     0.84840
O1682       O  0.58443694  0.57424342  0.88602454    -0.57110
O1683       O  0.50730932  0.58933774  0.83691868    -0.60410
In1684     In  0.61644679  0.63631359  0.99524805     1.36870
C1685       C  0.59068290  0.61114844  0.55643551     0.77290
O1686       O  0.61239085  0.67628770  0.52785267    -0.61160
O1687       O  0.61395052  0.67626364  0.96225606    -0.52070
C1688       C  0.67039818  0.63258751  0.99847936     0.69950
O1689       O  0.65547680  0.63297256  0.53032544    -0.46930
C1690       C  0.59139127  0.61129142  0.93298249     0.74660
O1691       O  0.61206104  0.60179778  0.54006272    -0.58790
O1692       O  0.58252010  0.63289699  0.94930375    -0.48880
O1693       O  0.58280630  0.63359752  0.54226356    -0.55220
C1694       C  0.61203058  0.69017947  0.49516064     0.84840
O1695       O  0.65743544  0.63345678  0.96475732    -0.57110
O1696       O  0.61357494  0.60287874  0.94745342    -0.60410
C1697       C  0.60426308  0.76465132  0.52749487    -0.06070
C1698       C  0.61069842  0.77783181  0.99013286    -0.00150
C1699       C  0.61528672  0.76192592  0.95364556    -0.08720
C1700       C  0.61525925  0.73351289  0.95700879    -0.06100
C1701       C  0.60994571  0.72040505  0.99482141    -0.00160
C1702       C  0.60320409  0.73626154  0.53043874    -0.08630
C1703       C  0.59427004  0.72376346  0.57131276     0.61750
H1704       H  0.59998194  0.77693012  0.55479817     0.12440
H1705       H  0.61972059  0.72120637  0.92981097     0.12460
C1706       C  0.62039437  0.77443865  0.91125165     0.61980
F1707       F  0.58521793  0.74314723  0.59961655    -0.23180
F1708       F  0.61571072  0.70997246  0.58923846    -0.20510
F1709       F  0.57316300  0.70617871  0.56424275    -0.20190
F1710       F  0.64331876  0.79013907  0.91260772    -0.20240
F1711       F  0.59834292  0.79021286  0.89994177    -0.20560
F1712       F  0.62429865  0.75501879  0.88044675    -0.23240
C1713       C  0.74439309  0.63619689  0.53289997    -0.06070
C1714       C  0.75796327  0.63078725  0.99522540    -0.00150
C1715       C  0.74259856  0.62382028  0.95956515    -0.08720
C1716       C  0.71417873  0.62435734  0.96254874    -0.06100
C1717       C  0.70054385  0.63105390  0.99978613    -0.00160
C1718       C  0.71597219  0.63636132  0.53607986    -0.08630
C1719       C  0.70289855  0.64309947  0.57788954     0.61750
H1720       H  0.75635125  0.64112383  0.55998365     0.12440
H1721       H  0.70228138  0.61965641  0.93530865     0.12460
C1722       C  0.75580597  0.61538154  0.91858990     0.61980
F1723       F  0.72187978  0.64861609  0.60826577    -0.23180
F1724       F  0.68789431  0.62134676  0.59134698    -0.20510
F1725       F  0.68634037  0.66573596  0.57420965    -0.20190
F1726       F  0.77441949  0.59473903  0.92536254    -0.20240
F1727       F  0.76860340  0.63727792  0.90096448    -0.20560
F1728       F  0.73708891  0.60596949  0.89017858    -0.23240
C1729       C  0.74435342  0.85625638  0.96191053    -0.06070
C1730       C  0.75743150  0.86916287  0.99516780    -0.00150
C1731       C  0.74153047  0.88223585  0.52658057    -0.08720
C1732       C  0.71312984  0.88062573  0.52431113    -0.06100
C1733       C  0.70017796  0.86716749  0.99150307    -0.00160
C1734       C  0.71602114  0.85503457  0.95934229    -0.08630
C1735       C  0.70333073  0.83990038  0.92318281     0.61750
H1736       H  0.75660989  0.84659826  0.93797774     0.12440
H1737       H  0.70069096  0.88999096  0.54833344     0.12460
C1738       C  0.75409847  0.89827497  0.56197249     0.61980
F1739       F  0.72255248  0.82733375  0.89796080    -0.23180
F1740       F  0.68873284  0.85776465  0.89877879    -0.20510
F1741       F  0.68643345  0.82010439  0.93827077    -0.20190
F1742       F  0.77149534  0.91738497  0.54601325    -0.20240
F1743       F  0.76812447  0.88101764  0.58809471    -0.20560
F1744       F  0.73475306  0.91188223  0.58569751    -0.23240
C1745       C  0.86345871  0.76573977  0.97451147    -0.06070
C1746       C  0.84562082  0.77930993  0.00196369    -0.00150
C1747       C  0.82861894  0.76401457  0.52838759    -0.08720
C1748       C  0.82968256  0.73561543  0.52543752    -0.06100
C1749       C  0.84743804  0.72203323  0.99793155    -0.00160
C1750       C  0.86497670  0.73725541  0.97231380    -0.08630
C1751       C  0.88463001  0.72371222  0.94198553     0.61750
H1752       H  0.87636976  0.77775492  0.95475217     0.12440
H1753       H  0.81663122  0.72364321  0.54503299     0.12460
C1754       C  0.80890639  0.77737902  0.55885998     0.61980
F1755       F  0.89812790  0.74240397  0.91786813    -0.23180
F1756       F  0.87077528  0.70664571  0.91548192    -0.20510
F1757       F  0.90382044  0.70897292  0.96369765    -0.20190
F1758       F  0.79211410  0.79529986  0.53804817    -0.20240
F1759       F  0.82308440  0.79109162  0.58925661    -0.20560
F1760       F  0.79272366  0.75864297  0.57855862    -0.23240
loop_ 
_geom_bond_atom_site_label_1 
_geom_bond_atom_site_label_2 
_geom_bond_distance 
_geom_bond_site_symmetry_2 
_ccdc_geom_bond_type 
In1           O3   2.247       .  S
In1           O4   2.237       .  S
In1          O12   2.253       .  S
In1           O6   2.249       .  S
In1           O8   2.293       .  S
In1           O9   2.239       .  S
In1          O10   2.203       .  S
In1          O13   2.251       .  S
C2            O8   1.264       .  A
C2           O10   1.255       .  A
C2           C15   1.464       .  S
O3           C11   1.262       .  A
O4           C11   1.261       .  A
C5           O12   1.257       .  A
C5            O6   1.257       .  A
C5           C28   1.462       .  S
C7            O9   1.260       .  A
C7           O13   1.261       .  A
C7          C490   1.462       .  S
C11         C965   1.461       .  S
In14         O16   2.247       .  S
In14         O17   2.242       .  S
In14         O25   2.259       .  S
In14         O19   2.249       .  S
In14         O21   2.294       .  S
In14         O22   2.239       .  S
In14         O23   2.204       .  S
In14         O26   2.248       .  S
C15          O21   1.264       .  A
C15          O23   1.255       .  A
O16          C24   1.261       .  A
O17          C24   1.261       .  A
C18          O25   1.258       .  A
C18          O19   1.257       .  A
C18          C33   1.464       .  S
C20          O22   1.261       .  A
C20          O26   1.261       .  A
C20         C102   1.462       .  S
C24         C499   1.463       .  S
In27         O30   2.248       .  S
In27         O38   2.245       .  S
In27         O35   2.245       .  S
In27         O39   2.255       .  S
In27        O249   2.244       .  S
In27        O252   2.239       .  S
In27        O254   2.243       .  S
In27        O256   2.250       .  S
C28          O34   1.258       .  A
C28          O36   1.260       .  A
O29        In247   2.243   1_554  S
O29          C37   1.259       .  A
O30         C257   1.261       .  A
C31          O38   1.263       .  A
C31         O252   1.258       .  A
C31         C190   1.489       .  S
O32        In247   2.239   1_554  S
O32         C251   1.258   1_554  A
C33          O35   1.258       .  A
C33          O39   1.259       .  A
O34        In247   2.243   1_554  S
O36        In247   2.250   1_554  S
C37         O250   1.261   1_554  A
C37         C426   1.483       .  S
In40         O42   2.251       .  S
In40         O43   2.233       .  S
In40         O51   2.240       .  S
In40         O45   2.261       .  S
In40         O47   2.283       .  S
In40         O48   2.248       .  S
In40         O49   2.204       .  S
In40         O52   2.251       .  S
C41          O47   1.264       .  A
C41          O49   1.256       .  A
C41          C54   1.460       .  S
O42          C50   1.263       .  A
O43          C50   1.261       .  A
C44          O51   1.256       .  A
C44          O45   1.258       .  A
C44          C67   1.460       .  S
C46          O48   1.259       .  A
C46          O52   1.259       .  A
C46         C128   1.463       .  S
C50         C447   1.462   1_545  S
In53         O55   2.249       .  S
In53         O56   2.242       .  S
In53         O64   2.255       .  S
In53         O58   2.247       .  S
In53         O60   2.284       .  S
In53         O61   2.246       .  S
In53         O62   2.205       .  S
In53         O65   2.247       .  S
C54          O60   1.263       .  A
C54          O62   1.255       .  A
O55          C63   1.262       .  A
O56          C63   1.261       .  A
C57          O64   1.257       .  A
C57          O58   1.257       .  A
C57          C72   1.461       .  S
C59          O61   1.261       .  A
C59          O65   1.260       .  A
C59         C464   1.463   1_545  S
C63        C1017   1.464       .  S
In66         O69   2.234       .  S
In66         O77   2.243       .  S
In66         O74   2.246       .  S
In66         O78   2.255       .  S
In66        O288   2.238       .  S
In66        O291   2.261       .  S
In66        O293   2.265       .  S
In66        O295   2.239       .  S
C67          O73   1.257       .  A
C67          O75   1.254       .  A
O68        In286   2.238   1_554  S
O68          C76   1.266   1_554  A
O69         C296   1.264       .  A
C70          O77   1.258       .  A
C70         O291   1.259       .  A
C70         C209   1.483       .  S
O71        In286   2.261       .  S
O71         C290   1.259       .  A
C72          O74   1.257       .  A
C72          O78   1.258       .  A
O73        In286   2.265   1_554  S
O75        In286   2.239   1_554  S
C76         O289   1.264       .  A
C76         C394   1.489       .  S
In79         O81   2.250       .  S
In79         O82   2.239       .  S
In79         O90   2.253       .  S
In79         O84   2.250       .  S
In79         O86   2.293       .  S
In79         O87   2.239       .  S
In79         O88   2.205       .  S
In79         O91   2.248       .  S
C80          O86   1.264       .  A
C80          O88   1.255       .  A
C80          C93   1.464       .  S
O81          C89   1.262       .  A
O82          C89   1.260       .  A
C83          O90   1.257       .  A
C83          O84   1.257       .  A
C83         C106   1.463       .  S
C85          O87   1.260   1_655  A
C85          O91   1.261   1_655  A
C85         C891   1.461       .  S
C89         C564   1.463       .  S
In92         O94   2.248       .  S
In92        O103   2.254       .  S
In92         O97   2.250       .  S
In92         O99   2.294       .  S
In92        O100   2.241       .  S
In92        O101   2.204       .  S
In92        O104   2.246       .  S
In92        O975   2.238       .  S
C93          O99   1.265       .  A
C93         O101   1.255       .  A
O94         C982   1.262   1_455  A
O95        In972   2.238       .  S
O95         C102   1.261       .  A
C96         O103   1.257       .  A
C96          O97   1.257       .  A
C96         C111   1.462       .  S
C98         O100   1.261       .  A
C98         O104   1.260       .  A
C98         C581   1.462       .  S
C102        O974   1.262       .  A
In105       O108   2.234       .  S
In105       O116   2.243       .  S
In105       O113   2.245       .  S
In105       O117   2.248       .  S
In105       O327   2.255       .  S
In105       O330   2.248       .  S
In105       O332   2.247       .  S
In105       O334   2.249       .  S
C106        O112   1.259       .  A
C106        O114   1.259       .  A
O107       In325   2.254   1_554  S
O107        C115   1.262   1_554  A
O108        C335   1.258       .  A
C109        O116   1.258       .  A
C109        O330   1.262       .  A
C109        C158   1.492       .  S
O110       In325   2.248   1_554  S
O110        C329   1.262   1_554  A
C111        O113   1.259       .  A
C111        O117   1.259       .  A
O112       In325   2.246   1_554  S
O114       In325   2.249   1_554  S
C115        O328   1.258       .  A
C115        C413   1.485       .  S
In118       O120   2.249       .  S
In118       O129   2.254       .  S
In118       O123   2.252       .  S
In118       O125   2.296       .  S
In118       O126   2.240       .  S
In118       O127   2.208       .  S
In118       O130   2.249       .  S
In118      O1001   2.243       .  S
C119        O125   1.264       .  A
C119        O127   1.255       .  A
C119        C132   1.466       .  S
O120       C1008   1.261   1_455  A
O121       In998   2.243       .  S
O121        C128   1.261       .  A
C122        O129   1.257       .  A
C122        O123   1.257       .  A
C122        C145   1.463       .  S
C124        O126   1.261       .  A
C124        O130   1.261       .  A
C124        C529   1.463   1_545  S
C128       O1000   1.261       .  A
In131       O133   2.248       .  S
In131       O134   2.240       .  S
In131       O142   2.257       .  S
In131       O136   2.251       .  S
In131       O138   2.296       .  S
In131       O139   2.241       .  S
In131       O140   2.208       .  S
In131       O143   2.250       .  S
C132        O138   1.264       .  A
C132        O140   1.255       .  A
O133        C141   1.262       .  A
O134        C141   1.260       .  A
C135        O142   1.257       .  A
C135        O136   1.257       .  A
C135        C150   1.464       .  S
C137        O139   1.260   1_655  A
C137        O143   1.261   1_655  A
C137        C943   1.464       .  S
C141        C538   1.462   1_545  S
In144       O147   2.249       .  S
In144       O155   2.249       .  S
In144       O152   2.246       .  S
In144       O156   2.253       .  S
In144       O366   2.239       .  S
In144       O369   2.242       .  S
In144       O371   2.247       .  S
In144       O373   2.248       .  S
C145        O151   1.260       .  A
C145        O153   1.259       .  A
O146       In364   2.239   1_554  S
O146        C154   1.258   1_554  A
O147        C374   1.262       .  A
C148        O155   1.262       .  A
C148        O369   1.258       .  A
C148        C177   1.492       .  S
O149       In364   2.242   1_554  S
O149        C368   1.258   1_554  A
C150        O152   1.259       .  A
C150        O156   1.260       .  A
O151       In364   2.247   1_554  S
O153       In364   2.248   1_554  S
C154        O367   1.262       .  A
C154        C381   1.491       .  S
C157        C162   1.407       .  A
C157        C378   1.406   1_554  A
C157        H164   1.082       .  S
C158        C159   1.422       .  A
C158        C377   1.406       .  A
C159        C160   1.408       .  A
C159        C166   1.521       .  S
C160        C161   1.406       .  A
C160        H165   1.081       .  S
C161        C374   1.491       .  S
C161        C382   1.421       .  A
C162        C381   1.421   1_554  A
C162        C163   1.521       .  S
C163        F167   1.385       .  S
C163        F168   1.383       .  S
C163        F169   1.384       .  S
C166        F170   1.381       .  S
C166        F171   1.383       .  S
C166        F172   1.385       .  S
C173        C178   1.408       .  A
C173        C394   1.405   1_554  A
C173        H180   1.082       .  S
C174        C296   1.489       .  S
C174        C175   1.420       .  A
C174        C393   1.405       .  A
C175        C176   1.408       .  A
C175        C182   1.520       .  S
C176        C177   1.406       .  A
C176        H181   1.082       .  S
C177        C398   1.423       .  A
C178        C397   1.423   1_554  A
C178        C179   1.521       .  S
C179        F183   1.385       .  S
C179        F184   1.383       .  S
C179        F185   1.383       .  S
C182        F186   1.384       .  S
C182        F187   1.383       .  S
C182        F188   1.385       .  S
C189        C190   1.405       .  A
C189        C194   1.405       .  A
C189        H196   1.081       .  S
C190        C411   1.423       .  A
C191        C192   1.409       .  A
C191        C410   1.423   1_554  A
C191        C198   1.521       .  S
C192        C413   1.404   1_554  A
C192        H197   1.082       .  S
C193        C335   1.485       .  S
C193        C194   1.419       .  A
C193        C412   1.404       .  A
C194        C195   1.519       .  S
C195        F199   1.384       .  S
C195        F200   1.383       .  S
C195        F201   1.382       .  S
C198        F202   1.384       .  S
C198        F203   1.383       .  S
C198        F204   1.385       .  S
C205        C206   1.405       .  A
C205        C210   1.409       .  A
C205        H212   1.083       .  S
C206        C257   1.484       .  S
C206        C427   1.419       .  A
C207        C208   1.405       .  A
C207        C426   1.419       .  A
C207        C214   1.520       .  S
C208        C429   1.404   1_554  A
C208        H213   1.083       .  S
C209        C210   1.418       .  A
C209        C428   1.404       .  A
C210        C211   1.519       .  S
C211        F215   1.385       .  S
C211        F216   1.383       .  S
C211        F217   1.383       .  S
C214        F218   1.384       .  S
C214        F219   1.383       .  S
C214        F220   1.385       .  S
In221       O223   2.247       .  S
In221       O224   2.237       .  S
In221       O232   2.253       .  S
In221       O226   2.249       .  S
In221       O228   2.293       .  S
In221       O229   2.239       .  S
In221       O230   2.203       .  S
In221       O233   2.251       .  S
C222        O228   1.264       .  A
C222        O230   1.255       .  A
C222        C235   1.464       .  S
O223        C231   1.262       .  A
O224        C231   1.261       .  A
C225        O232   1.257       .  A
C225        O226   1.257       .  A
C225        C248   1.462       .  S
C227        O229   1.260       .  A
C227        O233   1.261       .  A
C227        C710   1.462       .  S
C231       C1185   1.461       .  S
In234       O236   2.247       .  S
In234       O237   2.242       .  S
In234       O245   2.259       .  S
In234       O239   2.248       .  S
In234       O241   2.294       .  S
In234       O242   2.239       .  S
In234       O243   2.204       .  S
In234       O246   2.248       .  S
C235        O241   1.264       .  A
C235        O243   1.255       .  A
O236        C244   1.261       .  A
O237        C244   1.261       .  A
C238        O245   1.258       .  A
C238        O239   1.257       .  A
C238        C253   1.464       .  S
C240        O242   1.261       .  A
C240        O246   1.261       .  A
C240        C322   1.462       .  S
C244        C719   1.463       .  S
In247       O250   2.248       .  S
In247       O258   2.245       .  S
In247       O255   2.245       .  S
In247       O259   2.255       .  S
C248        O254   1.258       .  A
C248        O256   1.260       .  A
O249        C257   1.259       .  A
C251        O258   1.263       .  A
C251        C410   1.489       .  S
C253        O255   1.258       .  A
C253        O259   1.259       .  A
In260       O262   2.251       .  S
In260       O263   2.233       .  S
In260       O271   2.240       .  S
In260       O265   2.261       .  S
In260       O267   2.283       .  S
In260       O268   2.248       .  S
In260       O269   2.204       .  S
In260       O272   2.251       .  S
C261        O267   1.264       .  A
C261        O269   1.256       .  A
C261        C274   1.460       .  S
O262        C270   1.263       .  A
O263        C270   1.261       .  A
C264        O271   1.256       .  A
C264        O265   1.258       .  A
C264        C287   1.460       .  S
C266        O268   1.259       .  A
C266        O272   1.259       .  A
C266        C348   1.463       .  S
C270        C667   1.462   1_545  S
In273       O275   2.249       .  S
In273       O276   2.242       .  S
In273       O284   2.255       .  S
In273       O278   2.247       .  S
In273       O280   2.284       .  S
In273       O281   2.246       .  S
In273       O282   2.205       .  S
In273       O285   2.247       .  S
C274        O280   1.263       .  A
C274        O282   1.255       .  A
O275        C283   1.262       .  A
O276        C283   1.261       .  A
C277        O284   1.257       .  A
C277        O278   1.257       .  A
C277        C292   1.461       .  S
C279        O281   1.261       .  A
C279        O285   1.260       .  A
C279        C684   1.463   1_545  S
C283       C1237   1.464       .  S
In286       O289   2.234       .  S
In286       O297   2.243   1_556  S
In286       O294   2.246       .  S
In286       O298   2.255       .  S
C287        O293   1.257       .  A
C287        O295   1.254       .  A
O288        C296   1.266       .  A
C290        O297   1.258   1_556  A
C290        C429   1.483       .  S
C292        O294   1.257       .  A
C292        O298   1.258       .  A
In299       O301   2.250       .  S
In299       O302   2.239       .  S
In299       O310   2.254       .  S
In299       O304   2.251       .  S
In299       O306   2.293       .  S
In299       O307   2.239       .  S
In299       O308   2.205       .  S
In299       O311   2.248       .  S
C300        O306   1.264       .  A
C300        O308   1.255       .  A
C300        C313   1.464       .  S
O301        C309   1.262       .  A
O302        C309   1.260       .  A
C303        O310   1.257       .  A
C303        O304   1.257       .  A
C303        C326   1.463       .  S
C305        O307   1.260   1_655  A
C305        O311   1.261   1_655  A
C305       C1111   1.461       .  S
C309        C784   1.463       .  S
In312       O314   2.248       .  S
In312      O1195   2.238       .  S
In312       O323   2.254       .  S
In312       O317   2.250       .  S
In312       O319   2.293       .  S
In312       O320   2.241       .  S
In312       O321   2.204       .  S
In312       O324   2.246       .  S
C313        O319   1.264       .  A
C313        O321   1.255       .  A
O314       C1202   1.262   1_455  A
O315      In1192   2.238       .  S
O315        C322   1.261       .  A
C316        O323   1.257       .  A
C316        O317   1.257       .  A
C316        C331   1.462       .  S
C318        O320   1.261       .  A
C318        O324   1.260       .  A
C318        C801   1.462       .  S
C322       O1194   1.262       .  A
In325       O328   2.234       .  S
In325       O336   2.243       .  S
In325       O333   2.245       .  S
In325       O337   2.248       .  S
C326        O332   1.259       .  A
C326        O334   1.259       .  A
O327        C335   1.262       .  A
C329        O336   1.258       .  A
C329        C378   1.492       .  S
C331        O333   1.259       .  A
C331        O337   1.259       .  A
In338       O340   2.249       .  S
In338      O1221   2.243       .  S
In338       O349   2.255       .  S
In338       O343   2.252       .  S
In338       O345   2.296       .  S
In338       O346   2.240       .  S
In338       O347   2.208       .  S
In338       O350   2.249       .  S
C339        O345   1.264       .  A
C339        O347   1.255       .  A
C339        C352   1.466       .  S
O340       C1228   1.261   1_455  A
O341      In1218   2.243       .  S
O341        C348   1.261       .  A
C342        O349   1.257       .  A
C342        O343   1.257       .  A
C342        C365   1.463       .  S
C344        O346   1.261       .  A
C344        O350   1.261       .  A
C344        C749   1.463   1_545  S
C348       O1220   1.261       .  A
In351       O353   2.248       .  S
In351       O354   2.240       .  S
In351       O362   2.257       .  S
In351       O356   2.251       .  S
In351       O358   2.296       .  S
In351       O359   2.241       .  S
In351       O360   2.208       .  S
In351       O363   2.250       .  S
C352        O358   1.264       .  A
C352        O360   1.255       .  A
O353        C361   1.262       .  A
O354        C361   1.260       .  A
C355        O362   1.257       .  A
C355        O356   1.257       .  A
C355        C370   1.464       .  S
C357        O359   1.260   1_655  A
C357        O363   1.261   1_655  A
C357       C1163   1.464       .  S
C361        C758   1.462   1_545  S
In364       O367   2.248       .  S
In364       O375   2.249       .  S
In364       O372   2.246       .  S
In364       O376   2.253       .  S
C365        O371   1.259       .  A
C365        O373   1.259       .  A
O366        C374   1.258       .  A
C368        O375   1.262       .  A
C368        C397   1.492       .  S
C370        O372   1.259       .  A
C370        O376   1.260       .  A
C377        C382   1.407       .  A
C377        H384   1.082       .  S
C378        C379   1.422       .  A
C379        C380   1.408       .  A
C379        C386   1.521       .  S
C380        C381   1.406       .  A
C380        H385   1.081       .  S
C382        C383   1.521       .  S
C383        F387   1.385       .  S
C383        F388   1.383       .  S
C383        F389   1.384       .  S
C386        F390   1.381       .  S
C386        F391   1.383       .  S
C386        F392   1.385       .  S
C393        C398   1.408       .  A
C393        H400   1.082       .  S
C394        C395   1.420       .  A
C395        C396   1.407       .  A
C395        C402   1.520       .  S
C396        C397   1.406       .  A
C396        H401   1.082       .  S
C398        C399   1.521       .  S
C399        F403   1.385       .  S
C399        F404   1.383       .  S
C399        F405   1.383       .  S
C402        F406   1.384       .  S
C402        F407   1.383       .  S
C402        F408   1.385       .  S
C409        C410   1.405       .  A
C409        C414   1.405       .  A
C409        H416   1.081       .  S
C411        C412   1.409       .  A
C411        C418   1.521       .  S
C412        H417   1.082       .  S
C413        C414   1.419       .  A
C414        C415   1.519       .  S
C415        F419   1.384       .  S
C415        F420   1.383       .  S
C415        F421   1.382       .  S
C418        F422   1.384       .  S
C418        F423   1.383       .  S
C418        F424   1.385       .  S
C425        C426   1.405   1_556  A
C425        C430   1.409       .  A
C425        H432   1.083       .  S
C427        C428   1.405       .  A
C427        C434   1.520       .  S
C428        H433   1.083       .  S
C429        C430   1.418       .  A
C430        C431   1.519       .  S
C431        F435   1.385       .  S
C431        F436   1.383       .  S
C431        F437   1.383       .  S
C434        F438   1.384       .  S
C434        F439   1.383       .  S
C434        F440   1.385       .  S
In441       O443   2.247       .  S
In441       O444   2.237       .  S
In441       O452   2.253       .  S
In441       O446   2.249       .  S
In441       O448   2.293       .  S
In441       O449   2.239       .  S
In441       O450   2.203       .  S
In441       O453   2.251       .  S
C442        O448   1.264       .  A
C442        O450   1.255       .  A
C442        C455   1.464       .  S
O443        C451   1.262       .  A
O444        C451   1.261       .  A
C445        O452   1.257       .  A
C445        O446   1.257       .  A
C445        C468   1.462       .  S
C447        O449   1.260       .  A
C447        O453   1.261       .  A
C451       C1405   1.461       .  S
In454       O456   2.247       .  S
In454       O457   2.242       .  S
In454       O465   2.259       .  S
In454       O459   2.249       .  S
In454       O461   2.294       .  S
In454       O462   2.239       .  S
In454       O463   2.204       .  S
In454       O466   2.248       .  S
C455        O461   1.264       .  A
C455        O463   1.255       .  A
O456        C464   1.261       .  A
O457        C464   1.261       .  A
C458        O465   1.258       .  A
C458        O459   1.257       .  A
C458        C473   1.464       .  S
C460        O462   1.261       .  A
C460        O466   1.261       .  A
C460        C542   1.462       .  S
In467       O689   2.244       .  S
In467       O470   2.248       .  S
In467       O478   2.245       .  S
In467       O692   2.239       .  S
In467       O694   2.243       .  S
In467       O475   2.245       .  S
In467       O696   2.250       .  S
In467       O479   2.255       .  S
C468        O474   1.258       .  A
C468        O476   1.260       .  A
O469       In687   2.243   1_554  S
O469        C477   1.259       .  A
O470        C697   1.261       .  A
C471        O478   1.263       .  A
C471        O692   1.258       .  A
C471        C630   1.489       .  S
O472       In687   2.239   1_554  S
O472        C691   1.258   1_554  A
C473        O475   1.258       .  A
C473        O479   1.259       .  A
O474       In687   2.243   1_554  S
O476       In687   2.250   1_554  S
C477        O690   1.261   1_554  A
C477        C866   1.483       .  S
In480       O482   2.251       .  S
In480       O483   2.233       .  S
In480       O491   2.240       .  S
In480       O485   2.261       .  S
In480       O487   2.283       .  S
In480       O488   2.248       .  S
In480       O489   2.204       .  S
In480       O492   2.251       .  S
C481        O487   1.264       .  A
C481        O489   1.256       .  A
C481        C494   1.460       .  S
O482        C490   1.263       .  A
O483        C490   1.261       .  A
C484        O491   1.256       .  A
C484        O485   1.258       .  A
C484        C507   1.460       .  S
C486        O488   1.259       .  A
C486        O492   1.259       .  A
C486        C568   1.463       .  S
In493       O495   2.249       .  S
In493       O496   2.242       .  S
In493       O504   2.255       .  S
In493       O498   2.247       .  S
In493       O500   2.284       .  S
In493       O501   2.246       .  S
In493       O502   2.205       .  S
In493       O505   2.247       .  S
C494        O500   1.263       .  A
C494        O502   1.255       .  A
O495        C503   1.262       .  A
O496        C503   1.261       .  A
C497        O504   1.257       .  A
C497        O498   1.257       .  A
C497        C512   1.461       .  S
C499        O501   1.261       .  A
C499        O505   1.260       .  A
C503       C1457   1.464       .  S
In506       O728   2.238       .  S
In506       O509   2.234       .  S
In506       O517   2.243       .  S
In506       O731   2.261       .  S
In506       O733   2.265       .  S
In506       O514   2.246       .  S
In506       O735   2.239       .  S
In506       O518   2.255       .  S
C507        O513   1.257       .  A
C507        O515   1.254       .  A
O508       In726   2.238   1_554  S
O508        C516   1.266   1_554  A
O509        C736   1.264       .  A
C510        O517   1.258       .  A
C510        O731   1.259       .  A
C510        C649   1.483       .  S
O511       In726   2.261       .  S
O511        C730   1.259       .  A
C512        O514   1.257       .  A
C512        O518   1.258       .  A
O513       In726   2.265   1_554  S
O515       In726   2.239   1_554  S
C516        O729   1.264       .  A
C516        C834   1.489       .  S
In519       O521   2.250       .  S
In519       O522   2.239       .  S
In519       O530   2.253       .  S
In519       O524   2.250       .  S
In519       O526   2.293       .  S
In519       O527   2.239       .  S
In519       O528   2.205       .  S
In519       O531   2.248       .  S
C520        O526   1.264       .  A
C520        O528   1.255       .  A
C520        C533   1.464       .  S
O521        C529   1.262       .  A
O522        C529   1.260       .  A
C523        O530   1.257       .  A
C523        O524   1.257       .  A
C523        C546   1.463       .  S
C525        O527   1.260   1_655  A
C525        O531   1.261   1_655  A
C525       C1331   1.461       .  S
In532       O534   2.248       .  S
In532      O1415   2.238       .  S
In532       O543   2.254       .  S
In532       O537   2.250       .  S
In532       O539   2.294       .  S
In532       O540   2.241       .  S
In532       O541   2.204       .  S
In532       O544   2.246       .  S
C533        O539   1.265       .  A
C533        O541   1.255       .  A
O534       C1422   1.262   1_455  A
O535      In1412   2.238       .  S
O535        C542   1.261       .  A
C536        O543   1.257       .  A
C536        O537   1.257       .  A
C536        C551   1.462       .  S
C538        O540   1.261       .  A
C538        O544   1.260       .  A
C542       O1414   1.262       .  A
In545       O767   2.255       .  S
In545       O548   2.234       .  S
In545       O556   2.243       .  S
In545       O770   2.248       .  S
In545       O772   2.247       .  S
In545       O553   2.245       .  S
In545       O774   2.249       .  S
In545       O557   2.248       .  S
C546        O552   1.259       .  A
C546        O554   1.259       .  A
O547       In765   2.254   1_554  S
O547        C555   1.262   1_554  A
O548        C775   1.258       .  A
C549        O556   1.258       .  A
C549        O770   1.262       .  A
C549        C598   1.492       .  S
O550       In765   2.248   1_554  S
O550        C769   1.262   1_554  A
C551        O553   1.259       .  A
C551        O557   1.259       .  A
O552       In765   2.246   1_554  S
O554       In765   2.249   1_554  S
C555        O768   1.258       .  A
C555        C853   1.485       .  S
In558       O560   2.249       .  S
In558      O1441   2.243       .  S
In558       O569   2.254       .  S
In558       O563   2.252       .  S
In558       O565   2.296       .  S
In558       O566   2.240       .  S
In558       O567   2.208       .  S
In558       O570   2.249       .  S
C559        O565   1.264       .  A
C559        O567   1.255       .  A
C559        C572   1.466       .  S
O560       C1448   1.261   1_455  A
O561      In1438   2.243       .  S
O561        C568   1.261       .  A
C562        O569   1.257       .  A
C562        O563   1.257       .  A
C562        C585   1.463       .  S
C564        O566   1.261       .  A
C564        O570   1.261       .  A
C568       O1440   1.261       .  A
In571       O573   2.248       .  S
In571       O574   2.240       .  S
In571       O582   2.257       .  S
In571       O576   2.251       .  S
In571       O578   2.296       .  S
In571       O579   2.241       .  S
In571       O580   2.208       .  S
In571       O583   2.250       .  S
C572        O578   1.264       .  A
C572        O580   1.255       .  A
O573        C581   1.262       .  A
O574        C581   1.260       .  A
C575        O582   1.257       .  A
C575        O576   1.257       .  A
C575        C590   1.464       .  S
C577        O579   1.260   1_655  A
C577        O583   1.261   1_655  A
C577       C1383   1.464       .  S
In584       O806   2.239       .  S
In584       O587   2.249       .  S
In584       O595   2.249       .  S
In584       O809   2.242       .  S
In584       O811   2.247       .  S
In584       O592   2.246       .  S
In584       O813   2.248       .  S
In584       O596   2.253       .  S
C585        O591   1.260       .  A
C585        O593   1.259       .  A
O586       In804   2.239   1_554  S
O586        C594   1.258   1_554  A
O587        C814   1.262       .  A
C588        O595   1.262       .  A
C588        O809   1.258       .  A
C588        C617   1.492       .  S
O589       In804   2.242   1_554  S
O589        C808   1.258   1_554  A
C590        O592   1.259       .  A
C590        O596   1.260       .  A
O591       In804   2.247   1_554  S
O593       In804   2.248   1_554  S
C594        O807   1.262       .  A
C594        C821   1.491       .  S
C597        C818   1.406   1_554  A
C597        C602   1.407       .  A
C597        H604   1.082       .  S
C598        C817   1.406       .  A
C598        C599   1.422       .  A
C599        C600   1.408       .  A
C599        C606   1.521       .  S
C600        C601   1.406       .  A
C600        H605   1.081       .  S
C601        C814   1.491       .  S
C601        C822   1.421       .  A
C602        C821   1.421   1_554  A
C602        C603   1.521       .  S
C603        F607   1.385       .  S
C603        F608   1.383       .  S
C603        F609   1.384       .  S
C606        F610   1.381       .  S
C606        F611   1.383       .  S
C606        F612   1.385       .  S
C613        C834   1.405   1_554  A
C613        C618   1.408       .  A
C613        H620   1.082       .  S
C614        C736   1.489       .  S
C614        C833   1.405       .  A
C614        C615   1.420       .  A
C615        C616   1.408       .  A
C615        C622   1.520       .  S
C616        C617   1.406       .  A
C616        H621   1.082       .  S
C617        C838   1.423       .  A
C618        C837   1.423   1_554  A
C618        C619   1.521       .  S
C619        F623   1.385       .  S
C619        F624   1.383       .  S
C619        F625   1.383       .  S
C622        F626   1.384       .  S
C622        F627   1.383       .  S
C622        F628   1.385       .  S
C629        C630   1.405       .  A
C629        C634   1.405       .  A
C629        H636   1.081       .  S
C630        C851   1.423       .  A
C631        C850   1.423   1_554  A
C631        C632   1.409       .  A
C631        C638   1.521       .  S
C632        C853   1.404   1_554  A
C632        H637   1.082       .  S
C633        C775   1.485       .  S
C633        C852   1.404       .  A
C633        C634   1.419       .  A
C634        C635   1.519       .  S
C635        F639   1.384       .  S
C635        F640   1.383       .  S
C635        F641   1.382       .  S
C638        F642   1.384       .  S
C638        F643   1.383       .  S
C638        F644   1.385       .  S
C645        C646   1.405       .  A
C645        C650   1.409       .  A
C645        H652   1.083       .  S
C646        C697   1.484       .  S
C646        C867   1.419       .  A
C647        C866   1.419       .  A
C647        C648   1.405       .  A
C647        C654   1.520       .  S
C648        C869   1.404   1_554  A
C648        H653   1.083       .  S
C649        C868   1.404       .  A
C649        C650   1.418       .  A
C650        C651   1.519       .  S
C651        F655   1.385       .  S
C651        F656   1.383       .  S
C651        F657   1.383       .  S
C654        F658   1.384       .  S
C654        F659   1.383       .  S
C654        F660   1.385       .  S
In661       O663   2.247       .  S
In661       O664   2.237       .  S
In661       O672   2.253       .  S
In661       O666   2.249       .  S
In661       O668   2.293       .  S
In661       O669   2.239       .  S
In661       O670   2.203       .  S
In661       O673   2.251       .  S
C662        O668   1.264       .  A
C662        O670   1.255       .  A
C662        C675   1.464       .  S
O663        C671   1.262       .  A
O664        C671   1.261       .  A
C665        O672   1.257       .  A
C665        O666   1.257       .  A
C665        C688   1.462       .  S
C667        O669   1.260       .  A
C667        O673   1.261       .  A
C671       C1625   1.461       .  S
In674       O676   2.247       .  S
In674       O677   2.242       .  S
In674       O685   2.259       .  S
In674       O679   2.248       .  S
In674       O681   2.294       .  S
In674       O682   2.239       .  S
In674       O683   2.204       .  S
In674       O686   2.248       .  S
C675        O681   1.264       .  A
C675        O683   1.255       .  A
O676        C684   1.261       .  A
O677        C684   1.261       .  A
C678        O685   1.258       .  A
C678        O679   1.257       .  A
C678        C693   1.464       .  S
C680        O682   1.261       .  A
C680        O686   1.261       .  A
C680        C762   1.462       .  S
In687       O690   2.248       .  S
In687       O698   2.245       .  S
In687       O695   2.245       .  S
In687       O699   2.255       .  S
C688        O694   1.258       .  A
C688        O696   1.260       .  A
O689        C697   1.259       .  A
C691        O698   1.263       .  A
C691        C850   1.489       .  S
C693        O695   1.258       .  A
C693        O699   1.259       .  A
In700       O702   2.251       .  S
In700       O703   2.233       .  S
In700       O711   2.240       .  S
In700       O705   2.261       .  S
In700       O707   2.283       .  S
In700       O708   2.248       .  S
In700       O709   2.204       .  S
In700       O712   2.251       .  S
C701        O707   1.264       .  A
C701        O709   1.256       .  A
C701        C714   1.460       .  S
O702        C710   1.263       .  A
O703        C710   1.261       .  A
C704        O711   1.256       .  A
C704        O705   1.258       .  A
C704        C727   1.460       .  S
C706        O708   1.259       .  A
C706        O712   1.259       .  A
C706        C788   1.463       .  S
In713       O715   2.249       .  S
In713       O716   2.242       .  S
In713       O724   2.255       .  S
In713       O718   2.247       .  S
In713       O720   2.284       .  S
In713       O721   2.246       .  S
In713       O722   2.205       .  S
In713       O725   2.247       .  S
C714        O720   1.263       .  A
C714        O722   1.255       .  A
O715        C723   1.262       .  A
O716        C723   1.261       .  A
C717        O724   1.257       .  A
C717        O718   1.257       .  A
C717        C732   1.461       .  S
C719        O721   1.261       .  A
C719        O725   1.260       .  A
C723       C1677   1.464       .  S
In726       O729   2.234       .  S
In726       O737   2.243   1_556  S
In726       O734   2.246       .  S
In726       O738   2.255       .  S
C727        O733   1.257       .  A
C727        O735   1.254       .  A
O728        C736   1.266       .  A
C730        O737   1.258   1_556  A
C730        C869   1.483       .  S
C732        O734   1.257       .  A
C732        O738   1.258       .  A
In739       O741   2.250       .  S
In739       O742   2.239       .  S
In739       O750   2.254       .  S
In739       O744   2.251       .  S
In739       O746   2.293       .  S
In739       O747   2.239       .  S
In739       O748   2.205       .  S
In739       O751   2.248       .  S
C740        O746   1.264       .  A
C740        O748   1.255       .  A
C740        C753   1.464       .  S
O741        C749   1.262       .  A
O742        C749   1.260       .  A
C743        O750   1.257       .  A
C743        O744   1.257       .  A
C743        C766   1.463       .  S
C745        O747   1.260   1_655  A
C745        O751   1.261   1_655  A
C745       C1551   1.461       .  S
In752       O754   2.248       .  S
In752      O1635   2.238       .  S
In752       O763   2.254       .  S
In752       O757   2.250       .  S
In752       O759   2.293       .  S
In752       O760   2.241       .  S
In752       O761   2.204       .  S
In752       O764   2.246       .  S
C753        O759   1.264       .  A
C753        O761   1.255       .  A
O754       C1642   1.262   1_455  A
O755      In1632   2.238       .  S
O755        C762   1.261       .  A
C756        O763   1.257       .  A
C756        O757   1.257       .  A
C756        C771   1.462       .  S
C758        O760   1.261       .  A
C758        O764   1.260       .  A
C762       O1634   1.262       .  A
In765       O768   2.234       .  S
In765       O776   2.243       .  S
In765       O773   2.245       .  S
In765       O777   2.248       .  S
C766        O772   1.259       .  A
C766        O774   1.259       .  A
O767        C775   1.262       .  A
C769        O776   1.258       .  A
C769        C818   1.492       .  S
C771        O773   1.259       .  A
C771        O777   1.259       .  A
In778       O780   2.249       .  S
In778      O1661   2.243       .  S
In778       O789   2.255       .  S
In778       O783   2.252       .  S
In778       O785   2.296       .  S
In778       O786   2.240       .  S
In778       O787   2.208       .  S
In778       O790   2.249       .  S
C779        O785   1.264       .  A
C779        O787   1.255       .  A
C779        C792   1.466       .  S
O780       C1668   1.261   1_455  A
O781      In1658   2.243       .  S
O781        C788   1.261       .  A
C782        O789   1.257       .  A
C782        O783   1.257       .  A
C782        C805   1.463       .  S
C784        O786   1.261       .  A
C784        O790   1.261       .  A
C788       O1660   1.261       .  A
In791       O793   2.248       .  S
In791       O794   2.240       .  S
In791       O802   2.257       .  S
In791       O796   2.251       .  S
In791       O798   2.296       .  S
In791       O799   2.241       .  S
In791       O800   2.208       .  S
In791       O803   2.250       .  S
C792        O798   1.264       .  A
C792        O800   1.255       .  A
O793        C801   1.262       .  A
O794        C801   1.260       .  A
C795        O802   1.257       .  A
C795        O796   1.257       .  A
C795        C810   1.464       .  S
C797        O799   1.260   1_655  A
C797        O803   1.261   1_655  A
C797       C1603   1.464       .  S
In804       O807   2.248       .  S
In804       O815   2.249       .  S
In804       O812   2.246       .  S
In804       O816   2.253       .  S
C805        O811   1.259       .  A
C805        O813   1.259       .  A
O806        C814   1.258       .  A
C808        O815   1.262       .  A
C808        C837   1.492       .  S
C810        O812   1.259       .  A
C810        O816   1.260       .  A
C817        C822   1.407       .  A
C817        H824   1.082       .  S
C818        C819   1.422       .  A
C819        C820   1.408       .  A
C819        C826   1.521       .  S
C820        C821   1.406       .  A
C820        H825   1.081       .  S
C822        C823   1.521       .  S
C823        F827   1.385       .  S
C823        F828   1.383       .  S
C823        F829   1.384       .  S
C826        F830   1.381       .  S
C826        F831   1.383       .  S
C826        F832   1.385       .  S
C833        C838   1.408       .  A
C833        H840   1.082       .  S
C834        C835   1.420       .  A
C835        C836   1.407       .  A
C835        C842   1.520       .  S
C836        C837   1.406       .  A
C836        H841   1.082       .  S
C838        C839   1.521       .  S
C839        F843   1.385       .  S
C839        F844   1.383       .  S
C839        F845   1.383       .  S
C842        F846   1.384       .  S
C842        F847   1.383       .  S
C842        F848   1.385       .  S
C849        C850   1.405       .  A
C849        C854   1.405       .  A
C849        H856   1.081       .  S
C851        C852   1.409       .  A
C851        C858   1.521       .  S
C852        H857   1.082       .  S
C853        C854   1.419       .  A
C854        C855   1.519       .  S
C855        F859   1.384       .  S
C855        F860   1.383       .  S
C855        F861   1.382       .  S
C858        F862   1.384       .  S
C858        F863   1.383       .  S
C858        F864   1.385       .  S
C865        C866   1.405   1_556  A
C865        C870   1.409       .  A
C865        H872   1.083       .  S
C867        C868   1.405       .  A
C867        C874   1.520       .  S
C868        H873   1.083       .  S
C869        C870   1.418       .  A
C870        C871   1.519       .  S
C871        F875   1.385       .  S
C871        F876   1.383       .  S
C871        F877   1.383       .  S
C874        F878   1.384       .  S
C874        F879   1.383       .  S
C874        F880   1.385       .  S
In881       O883   2.247       .  S
In881       O884   2.237       .  S
In881       O892   2.253       .  S
In881       O886   2.249       .  S
In881       O888   2.293       .  S
In881       O889   2.239       .  S
In881       O890   2.203       .  S
In881       O893   2.251       .  S
C882        O888   1.264       .  A
C882        O890   1.255       .  A
C882        C895   1.464       .  S
O883        C891   1.262       .  A
O884        C891   1.261       .  A
C885        O892   1.257       .  A
C885        O886   1.257       .  A
C885        C908   1.462       .  S
C887        O889   1.260       .  A
C887        O893   1.261       .  A
C887       C1370   1.462       .  S
In894       O896   2.247       .  S
In894       O897   2.242       .  S
In894       O905   2.259       .  S
In894       O899   2.249       .  S
In894       O901   2.294       .  S
In894       O902   2.239       .  S
In894       O903   2.204       .  S
In894       O906   2.248       .  S
C895        O901   1.264       .  A
C895        O903   1.255       .  A
O896        C904   1.261       .  A
O897        C904   1.261       .  A
C898        O905   1.258       .  A
C898        O899   1.257       .  A
C898        C913   1.464       .  S
C900        O902   1.261       .  A
C900        O906   1.261       .  A
C900        C982   1.462       .  S
C904       C1379   1.463       .  S
In907      O1129   2.244       .  S
In907       O910   2.248       .  S
In907       O918   2.245       .  S
In907      O1132   2.239       .  S
In907      O1134   2.243       .  S
In907       O915   2.245       .  S
In907      O1136   2.250       .  S
In907       O919   2.255       .  S
C908        O914   1.258       .  A
C908        O916   1.260       .  A
O909      In1127   2.243   1_554  S
O909        C917   1.259       .  A
O910       C1137   1.261       .  A
C911        O918   1.263       .  A
C911       O1132   1.258       .  A
C911       C1070   1.489       .  S
O912      In1127   2.239   1_554  S
O912       C1131   1.258   1_554  A
C913        O915   1.258       .  A
C913        O919   1.259       .  A
O914      In1127   2.243   1_554  S
O916      In1127   2.250   1_554  S
C917       O1130   1.261   1_554  A
C917       C1306   1.483       .  S
In920       O922   2.251       .  S
In920       O923   2.233       .  S
In920       O931   2.240       .  S
In920       O925   2.261       .  S
In920       O927   2.283       .  S
In920       O928   2.248       .  S
In920       O929   2.204       .  S
In920       O932   2.251       .  S
C921        O927   1.264       .  A
C921        O929   1.256       .  A
C921        C934   1.460       .  S
O922        C930   1.263       .  A
O923        C930   1.261       .  A
C924        O931   1.256       .  A
C924        O925   1.258       .  A
C924        C947   1.460       .  S
C926        O928   1.259       .  A
C926        O932   1.259       .  A
C926       C1008   1.463       .  S
C930       C1327   1.462   1_545  S
In933       O935   2.249       .  S
In933       O936   2.242       .  S
In933       O944   2.255       .  S
In933       O938   2.247       .  S
In933       O940   2.284       .  S
In933       O941   2.246       .  S
In933       O942   2.205       .  S
In933       O945   2.247       .  S
C934        O940   1.263       .  A
C934        O942   1.255       .  A
O935        C943   1.262       .  A
O936        C943   1.261       .  A
C937        O944   1.257       .  A
C937        O938   1.257       .  A
C937        C952   1.461       .  S
C939        O941   1.261       .  A
C939        O945   1.260       .  A
C939       C1344   1.463   1_545  S
In946      O1168   2.238       .  S
In946       O949   2.234       .  S
In946       O957   2.243       .  S
In946      O1171   2.261       .  S
In946      O1173   2.265       .  S
In946       O954   2.246       .  S
In946      O1175   2.239       .  S
In946       O958   2.255       .  S
C947        O953   1.257       .  A
C947        O955   1.254       .  A
O948      In1166   2.238   1_554  S
O948        C956   1.266   1_554  A
O949       C1176   1.264       .  A
C950        O957   1.258       .  A
C950       O1171   1.259       .  A
C950       C1089   1.483       .  S
O951      In1166   2.261       .  S
O951       C1170   1.259       .  A
C952        O954   1.257       .  A
C952        O958   1.258       .  A
O953      In1166   2.265   1_554  S
O955      In1166   2.239   1_554  S
C956       O1169   1.264       .  A
C956       C1274   1.489       .  S
In959       O961   2.250       .  S
In959       O962   2.239       .  S
In959       O970   2.253       .  S
In959       O964   2.250       .  S
In959       O966   2.293       .  S
In959       O967   2.239       .  S
In959       O968   2.205       .  S
In959       O971   2.248       .  S
C960        O966   1.264       .  A
C960        O968   1.255       .  A
C960        C973   1.464       .  S
O961        C969   1.262       .  A
O962        C969   1.260       .  A
C963        O970   1.257       .  A
C963        O964   1.257       .  A
C963        C986   1.463       .  S
C965        O967   1.260       .  A
C965        O971   1.261       .  A
C969       C1444   1.463       .  S
In972       O974   2.248       .  S
In972       O983   2.254       .  S
In972       O977   2.250       .  S
In972       O979   2.294       .  S
In972       O980   2.241       .  S
In972       O981   2.204       .  S
In972       O984   2.246       .  S
C973        O979   1.265       .  A
C973        O981   1.255       .  A
O975        C982   1.261   1_455  A
C976        O983   1.257       .  A
C976        O977   1.257       .  A
C976        C991   1.462       .  S
C978        O980   1.261       .  A
C978        O984   1.260       .  A
C978       C1461   1.462       .  S
In985      O1207   2.255       .  S
In985       O988   2.234       .  S
In985       O996   2.243       .  S
In985      O1210   2.248       .  S
In985      O1212   2.247       .  S
In985       O993   2.245       .  S
In985      O1214   2.249       .  S
In985       O997   2.248       .  S
C986        O992   1.259       .  A
C986        O994   1.259       .  A
O987      In1205   2.254   1_554  S
O987        C995   1.262   1_554  A
O988       C1215   1.258       .  A
C989        O996   1.258       .  A
C989       O1210   1.262       .  A
C989       C1038   1.492       .  S
O990      In1205   2.248   1_554  S
O990       C1209   1.262   1_554  A
C991        O993   1.259       .  A
C991        O997   1.259       .  A
O992      In1205   2.246   1_554  S
O994      In1205   2.249   1_554  S
C995       O1208   1.258       .  A
C995       C1293   1.485       .  S
In998      O1000   2.249       .  S
In998      O1009   2.254       .  S
In998      O1003   2.252       .  S
In998      O1005   2.296       .  S
In998      O1006   2.240       .  S
In998      O1007   2.208       .  S
In998      O1010   2.249       .  S
C999       O1005   1.264       .  A
C999       O1007   1.255       .  A
C999       C1012   1.466       .  S
O1001      C1008   1.261   1_455  A
C1002      O1009   1.257       .  A
C1002      O1003   1.257       .  A
C1002      C1025   1.463       .  S
C1004      O1006   1.261       .  A
C1004      O1010   1.261       .  A
C1004      C1409   1.463   1_545  S
In1011     O1013   2.248       .  S
In1011     O1014   2.240       .  S
In1011     O1022   2.257       .  S
In1011     O1016   2.251       .  S
In1011     O1018   2.296       .  S
In1011     O1019   2.241       .  S
In1011     O1020   2.208       .  S
In1011     O1023   2.250       .  S
C1012      O1018   1.264       .  A
C1012      O1020   1.255       .  A
O1013      C1021   1.262       .  A
O1014      C1021   1.260       .  A
C1015      O1022   1.257       .  A
C1015      O1016   1.257       .  A
C1015      C1030   1.464       .  S
C1017      O1019   1.260       .  A
C1017      O1023   1.261       .  A
C1021      C1418   1.462   1_545  S
In1024     O1246   2.239       .  S
In1024     O1027   2.249       .  S
In1024     O1035   2.249       .  S
In1024     O1249   2.242       .  S
In1024     O1251   2.247       .  S
In1024     O1032   2.246       .  S
In1024     O1253   2.248       .  S
In1024     O1036   2.253       .  S
C1025      O1031   1.260       .  A
C1025      O1033   1.259       .  A
O1026     In1244   2.239   1_554  S
O1026      C1034   1.258   1_554  A
O1027      C1254   1.262       .  A
C1028      O1035   1.262       .  A
C1028      O1249   1.258       .  A
C1028      C1057   1.492       .  S
O1029     In1244   2.242   1_554  S
O1029      C1248   1.258   1_554  A
C1030      O1032   1.259       .  A
C1030      O1036   1.260       .  A
O1031     In1244   2.247   1_554  S
O1033     In1244   2.248   1_554  S
C1034      O1247   1.262       .  A
C1034      C1261   1.491       .  S
C1037      C1258   1.406   1_554  A
C1037      C1042   1.407       .  A
C1037      H1044   1.082       .  S
C1038      C1257   1.406       .  A
C1038      C1039   1.422       .  A
C1039      C1040   1.408       .  A
C1039      C1046   1.521       .  S
C1040      C1041   1.406       .  A
C1040      H1045   1.081       .  S
C1041      C1254   1.491       .  S
C1041      C1262   1.421       .  A
C1042      C1261   1.421   1_554  A
C1042      C1043   1.521       .  S
C1043      F1047   1.385       .  S
C1043      F1048   1.383       .  S
C1043      F1049   1.384       .  S
C1046      F1050   1.381       .  S
C1046      F1051   1.383       .  S
C1046      F1052   1.385       .  S
C1053      C1274   1.405   1_554  A
C1053      C1058   1.408       .  A
C1053      H1060   1.082       .  S
C1054      C1176   1.489       .  S
C1054      C1273   1.405       .  A
C1054      C1055   1.420       .  A
C1055      C1056   1.408       .  A
C1055      C1062   1.520       .  S
C1056      C1057   1.406       .  A
C1056      H1061   1.082       .  S
C1057      C1278   1.423       .  A
C1058      C1277   1.423   1_554  A
C1058      C1059   1.521       .  S
C1059      F1063   1.385       .  S
C1059      F1064   1.383       .  S
C1059      F1065   1.383       .  S
C1062      F1066   1.384       .  S
C1062      F1067   1.383       .  S
C1062      F1068   1.385       .  S
C1069      C1070   1.405       .  A
C1069      C1074   1.405       .  A
C1069      H1076   1.081       .  S
C1070      C1291   1.423       .  A
C1071      C1290   1.423   1_554  A
C1071      C1072   1.409       .  A
C1071      C1078   1.521       .  S
C1072      C1293   1.404   1_554  A
C1072      H1077   1.082       .  S
C1073      C1215   1.485       .  S
C1073      C1292   1.404       .  A
C1073      C1074   1.419       .  A
C1074      C1075   1.519       .  S
C1075      F1079   1.384       .  S
C1075      F1080   1.383       .  S
C1075      F1081   1.382       .  S
C1078      F1082   1.384       .  S
C1078      F1083   1.383       .  S
C1078      F1084   1.385       .  S
C1085      C1086   1.405       .  A
C1085      C1090   1.409       .  A
C1085      H1092   1.083       .  S
C1086      C1137   1.484       .  S
C1086      C1307   1.419       .  A
C1087      C1306   1.419       .  A
C1087      C1088   1.405       .  A
C1087      C1094   1.520       .  S
C1088      C1309   1.404   1_554  A
C1088      H1093   1.083       .  S
C1089      C1308   1.404       .  A
C1089      C1090   1.418       .  A
C1090      C1091   1.519       .  S
C1091      F1095   1.385       .  S
C1091      F1096   1.383       .  S
C1091      F1097   1.383       .  S
C1094      F1098   1.384       .  S
C1094      F1099   1.383       .  S
C1094      F1100   1.385       .  S
In1101     O1103   2.247       .  S
In1101     O1104   2.237       .  S
In1101     O1112   2.253       .  S
In1101     O1106   2.249       .  S
In1101     O1108   2.293       .  S
In1101     O1109   2.239       .  S
In1101     O1110   2.203       .  S
In1101     O1113   2.251       .  S
C1102      O1108   1.264       .  A
C1102      O1110   1.255       .  A
C1102      C1115   1.464       .  S
O1103      C1111   1.262       .  A
O1104      C1111   1.261       .  A
C1105      O1112   1.257       .  A
C1105      O1106   1.257       .  A
C1105      C1128   1.462       .  S
C1107      O1109   1.260       .  A
C1107      O1113   1.261       .  A
C1107      C1590   1.462       .  S
In1114     O1116   2.247       .  S
In1114     O1117   2.242       .  S
In1114     O1125   2.259       .  S
In1114     O1119   2.248       .  S
In1114     O1121   2.294       .  S
In1114     O1122   2.239       .  S
In1114     O1123   2.204       .  S
In1114     O1126   2.248       .  S
C1115      O1121   1.264       .  A
C1115      O1123   1.255       .  A
O1116      C1124   1.261       .  A
O1117      C1124   1.261       .  A
C1118      O1125   1.258       .  A
C1118      O1119   1.257       .  A
C1118      C1133   1.464       .  S
C1120      O1122   1.261       .  A
C1120      O1126   1.261       .  A
C1120      C1202   1.462       .  S
C1124      C1599   1.463       .  S
In1127     O1130   2.248       .  S
In1127     O1138   2.245       .  S
In1127     O1135   2.245       .  S
In1127     O1139   2.255       .  S
C1128      O1134   1.258       .  A
C1128      O1136   1.260       .  A
O1129      C1137   1.259       .  A
C1131      O1138   1.263       .  A
C1131      C1290   1.489       .  S
C1133      O1135   1.258       .  A
C1133      O1139   1.259       .  A
In1140     O1142   2.251       .  S
In1140     O1143   2.233       .  S
In1140     O1151   2.240       .  S
In1140     O1145   2.261       .  S
In1140     O1147   2.283       .  S
In1140     O1148   2.248       .  S
In1140     O1149   2.204       .  S
In1140     O1152   2.251       .  S
C1141      O1147   1.264       .  A
C1141      O1149   1.256       .  A
C1141      C1154   1.460       .  S
O1142      C1150   1.263       .  A
O1143      C1150   1.261       .  A
C1144      O1151   1.256       .  A
C1144      O1145   1.258       .  A
C1144      C1167   1.460       .  S
C1146      O1148   1.259       .  A
C1146      O1152   1.259       .  A
C1146      C1228   1.463       .  S
C1150      C1547   1.462   1_545  S
In1153     O1155   2.249       .  S
In1153     O1156   2.242       .  S
In1153     O1164   2.255       .  S
In1153     O1158   2.247       .  S
In1153     O1160   2.284       .  S
In1153     O1161   2.246       .  S
In1153     O1162   2.205       .  S
In1153     O1165   2.247       .  S
C1154      O1160   1.263       .  A
C1154      O1162   1.255       .  A
O1155      C1163   1.262       .  A
O1156      C1163   1.261       .  A
C1157      O1164   1.257       .  A
C1157      O1158   1.257       .  A
C1157      C1172   1.461       .  S
C1159      O1161   1.261       .  A
C1159      O1165   1.260       .  A
C1159      C1564   1.463   1_545  S
In1166     O1169   2.234       .  S
In1166     O1177   2.243   1_556  S
In1166     O1174   2.246       .  S
In1166     O1178   2.255       .  S
C1167      O1173   1.257       .  A
C1167      O1175   1.254       .  A
O1168      C1176   1.266       .  A
C1170      O1177   1.258   1_556  A
C1170      C1309   1.483       .  S
C1172      O1174   1.257       .  A
C1172      O1178   1.258       .  A
In1179     O1181   2.250       .  S
In1179     O1182   2.239       .  S
In1179     O1190   2.254       .  S
In1179     O1184   2.251       .  S
In1179     O1186   2.293       .  S
In1179     O1187   2.239       .  S
In1179     O1188   2.205       .  S
In1179     O1191   2.248       .  S
C1180      O1186   1.264       .  A
C1180      O1188   1.255       .  A
C1180      C1193   1.464       .  S
O1181      C1189   1.262       .  A
O1182      C1189   1.260       .  A
C1183      O1190   1.257       .  A
C1183      O1184   1.257       .  A
C1183      C1206   1.463       .  S
C1185      O1187   1.260       .  A
C1185      O1191   1.261       .  A
C1189      C1664   1.463       .  S
In1192     O1194   2.248       .  S
In1192     O1203   2.254       .  S
In1192     O1197   2.250       .  S
In1192     O1199   2.293       .  S
In1192     O1200   2.241       .  S
In1192     O1201   2.204       .  S
In1192     O1204   2.246       .  S
C1193      O1199   1.264       .  A
C1193      O1201   1.255       .  A
O1195      C1202   1.261   1_455  A
C1196      O1203   1.257       .  A
C1196      O1197   1.257       .  A
C1196      C1211   1.462       .  S
C1198      O1200   1.261       .  A
C1198      O1204   1.260       .  A
C1198      C1681   1.462       .  S
In1205     O1208   2.234       .  S
In1205     O1216   2.243       .  S
In1205     O1213   2.245       .  S
In1205     O1217   2.248       .  S
C1206      O1212   1.259       .  A
C1206      O1214   1.259       .  A
O1207      C1215   1.262       .  A
C1209      O1216   1.258       .  A
C1209      C1258   1.492       .  S
C1211      O1213   1.259       .  A
C1211      O1217   1.259       .  A
In1218     O1220   2.249       .  S
In1218     O1229   2.255       .  S
In1218     O1223   2.252       .  S
In1218     O1225   2.296       .  S
In1218     O1226   2.240       .  S
In1218     O1227   2.208       .  S
In1218     O1230   2.249       .  S
C1219      O1225   1.264       .  A
C1219      O1227   1.255       .  A
C1219      C1232   1.466       .  S
O1221      C1228   1.261   1_455  A
C1222      O1229   1.257       .  A
C1222      O1223   1.257       .  A
C1222      C1245   1.463       .  S
C1224      O1226   1.261       .  A
C1224      O1230   1.261       .  A
C1224      C1629   1.463   1_545  S
In1231     O1233   2.248       .  S
In1231     O1234   2.240       .  S
In1231     O1242   2.257       .  S
In1231     O1236   2.251       .  S
In1231     O1238   2.296       .  S
In1231     O1239   2.241       .  S
In1231     O1240   2.208       .  S
In1231     O1243   2.250       .  S
C1232      O1238   1.264       .  A
C1232      O1240   1.255       .  A
O1233      C1241   1.262       .  A
O1234      C1241   1.260       .  A
C1235      O1242   1.257       .  A
C1235      O1236   1.257       .  A
C1235      C1250   1.464       .  S
C1237      O1239   1.260       .  A
C1237      O1243   1.261       .  A
C1241      C1638   1.462   1_545  S
In1244     O1247   2.248       .  S
In1244     O1255   2.249       .  S
In1244     O1252   2.246       .  S
In1244     O1256   2.253       .  S
C1245      O1251   1.259       .  A
C1245      O1253   1.259       .  A
O1246      C1254   1.258       .  A
C1248      O1255   1.262       .  A
C1248      C1277   1.492       .  S
C1250      O1252   1.259       .  A
C1250      O1256   1.260       .  A
C1257      C1262   1.407       .  A
C1257      H1264   1.082       .  S
C1258      C1259   1.422       .  A
C1259      C1260   1.408       .  A
C1259      C1266   1.521       .  S
C1260      C1261   1.406       .  A
C1260      H1265   1.081       .  S
C1262      C1263   1.521       .  S
C1263      F1267   1.385       .  S
C1263      F1268   1.383       .  S
C1263      F1269   1.384       .  S
C1266      F1270   1.381       .  S
C1266      F1271   1.383       .  S
C1266      F1272   1.385       .  S
C1273      C1278   1.408       .  A
C1273      H1280   1.082       .  S
C1274      C1275   1.420       .  A
C1275      C1276   1.407       .  A
C1275      C1282   1.520       .  S
C1276      C1277   1.406       .  A
C1276      H1281   1.082       .  S
C1278      C1279   1.521       .  S
C1279      F1283   1.385       .  S
C1279      F1284   1.383       .  S
C1279      F1285   1.383       .  S
C1282      F1286   1.384       .  S
C1282      F1287   1.383       .  S
C1282      F1288   1.385       .  S
C1289      C1290   1.405       .  A
C1289      C1294   1.405       .  A
C1289      H1296   1.081       .  S
C1291      C1292   1.409       .  A
C1291      C1298   1.521       .  S
C1292      H1297   1.082       .  S
C1293      C1294   1.419       .  A
C1294      C1295   1.519       .  S
C1295      F1299   1.384       .  S
C1295      F1300   1.383       .  S
C1295      F1301   1.382       .  S
C1298      F1302   1.384       .  S
C1298      F1303   1.383       .  S
C1298      F1304   1.385       .  S
C1305      C1306   1.405   1_556  A
C1305      C1310   1.409       .  A
C1305      H1312   1.083       .  S
C1307      C1308   1.405       .  A
C1307      C1314   1.520       .  S
C1308      H1313   1.083       .  S
C1309      C1310   1.418       .  A
C1310      C1311   1.519       .  S
C1311      F1315   1.385       .  S
C1311      F1316   1.383       .  S
C1311      F1317   1.383       .  S
C1314      F1318   1.384       .  S
C1314      F1319   1.383       .  S
C1314      F1320   1.385       .  S
In1321     O1323   2.247       .  S
In1321     O1324   2.237       .  S
In1321     O1332   2.253       .  S
In1321     O1326   2.249       .  S
In1321     O1328   2.293       .  S
In1321     O1329   2.239       .  S
In1321     O1330   2.203       .  S
In1321     O1333   2.251       .  S
C1322      O1328   1.264       .  A
C1322      O1330   1.255       .  A
C1322      C1335   1.464       .  S
O1323      C1331   1.262       .  A
O1324      C1331   1.261       .  A
C1325      O1332   1.257       .  A
C1325      O1326   1.257       .  A
C1325      C1348   1.462       .  S
C1327      O1329   1.260       .  A
C1327      O1333   1.261       .  A
In1334     O1336   2.247       .  S
In1334     O1337   2.242       .  S
In1334     O1345   2.259       .  S
In1334     O1339   2.249       .  S
In1334     O1341   2.294       .  S
In1334     O1342   2.239       .  S
In1334     O1343   2.204       .  S
In1334     O1346   2.248       .  S
C1335      O1341   1.264       .  A
C1335      O1343   1.255       .  A
O1336      C1344   1.261       .  A
O1337      C1344   1.261       .  A
C1338      O1345   1.258       .  A
C1338      O1339   1.257       .  A
C1338      C1353   1.464       .  S
C1340      O1342   1.261       .  A
C1340      O1346   1.261       .  A
C1340      C1422   1.462       .  S
In1347     O1569   2.244       .  S
In1347     O1350   2.248       .  S
In1347     O1358   2.245       .  S
In1347     O1572   2.239       .  S
In1347     O1574   2.243       .  S
In1347     O1355   2.245       .  S
In1347     O1576   2.250       .  S
In1347     O1359   2.255       .  S
C1348      O1354   1.258       .  A
C1348      O1356   1.260       .  A
O1349     In1567   2.243   1_554  S
O1349      C1357   1.259       .  A
O1350      C1577   1.261       .  A
C1351      O1358   1.263       .  A
C1351      O1572   1.258       .  A
C1351      C1510   1.489       .  S
O1352     In1567   2.239   1_554  S
O1352      C1571   1.258   1_554  A
C1353      O1355   1.258       .  A
C1353      O1359   1.259       .  A
O1354     In1567   2.243   1_554  S
O1356     In1567   2.250   1_554  S
C1357      O1570   1.261   1_554  A
C1357      C1746   1.483       .  S
In1360     O1362   2.251       .  S
In1360     O1363   2.233       .  S
In1360     O1371   2.240       .  S
In1360     O1365   2.261       .  S
In1360     O1367   2.283       .  S
In1360     O1368   2.248       .  S
In1360     O1369   2.204       .  S
In1360     O1372   2.251       .  S
C1361      O1367   1.264       .  A
C1361      O1369   1.256       .  A
C1361      C1374   1.460       .  S
O1362      C1370   1.263       .  A
O1363      C1370   1.261       .  A
C1364      O1371   1.256       .  A
C1364      O1365   1.258       .  A
C1364      C1387   1.460       .  S
C1366      O1368   1.259       .  A
C1366      O1372   1.259       .  A
C1366      C1448   1.463       .  S
In1373     O1375   2.249       .  S
In1373     O1376   2.242       .  S
In1373     O1384   2.255       .  S
In1373     O1378   2.247       .  S
In1373     O1380   2.284       .  S
In1373     O1381   2.246       .  S
In1373     O1382   2.205       .  S
In1373     O1385   2.247       .  S
C1374      O1380   1.263       .  A
C1374      O1382   1.255       .  A
O1375      C1383   1.262       .  A
O1376      C1383   1.261       .  A
C1377      O1384   1.257       .  A
C1377      O1378   1.257       .  A
C1377      C1392   1.461       .  S
C1379      O1381   1.261       .  A
C1379      O1385   1.260       .  A
In1386     O1608   2.238       .  S
In1386     O1389   2.234       .  S
In1386     O1397   2.243       .  S
In1386     O1611   2.261       .  S
In1386     O1613   2.265       .  S
In1386     O1394   2.246       .  S
In1386     O1615   2.239       .  S
In1386     O1398   2.255       .  S
C1387      O1393   1.257       .  A
C1387      O1395   1.254       .  A
O1388     In1606   2.238   1_554  S
O1388      C1396   1.266   1_554  A
O1389      C1616   1.264       .  A
C1390      O1397   1.258       .  A
C1390      O1611   1.259       .  A
C1390      C1529   1.483       .  S
O1391     In1606   2.261       .  S
O1391      C1610   1.259       .  A
C1392      O1394   1.257       .  A
C1392      O1398   1.258       .  A
O1393     In1606   2.265   1_554  S
O1395     In1606   2.239   1_554  S
C1396      O1609   1.264       .  A
C1396      C1714   1.489       .  S
In1399     O1401   2.250       .  S
In1399     O1402   2.239       .  S
In1399     O1410   2.253       .  S
In1399     O1404   2.250       .  S
In1399     O1406   2.293       .  S
In1399     O1407   2.239       .  S
In1399     O1408   2.205       .  S
In1399     O1411   2.248       .  S
C1400      O1406   1.264       .  A
C1400      O1408   1.255       .  A
C1400      C1413   1.464       .  S
O1401      C1409   1.262       .  A
O1402      C1409   1.260       .  A
C1403      O1410   1.257       .  A
C1403      O1404   1.257       .  A
C1403      C1426   1.463       .  S
C1405      O1407   1.260       .  A
C1405      O1411   1.261       .  A
In1412     O1414   2.248       .  S
In1412     O1423   2.254       .  S
In1412     O1417   2.250       .  S
In1412     O1419   2.294       .  S
In1412     O1420   2.241       .  S
In1412     O1421   2.204       .  S
In1412     O1424   2.246       .  S
C1413      O1419   1.265       .  A
C1413      O1421   1.255       .  A
O1415      C1422   1.261   1_455  A
C1416      O1423   1.257       .  A
C1416      O1417   1.257       .  A
C1416      C1431   1.462       .  S
C1418      O1420   1.261       .  A
C1418      O1424   1.260       .  A
In1425     O1647   2.255       .  S
In1425     O1428   2.234       .  S
In1425     O1436   2.243       .  S
In1425     O1650   2.248       .  S
In1425     O1652   2.247       .  S
In1425     O1433   2.245       .  S
In1425     O1654   2.249       .  S
In1425     O1437   2.248       .  S
C1426      O1432   1.259       .  A
C1426      O1434   1.259       .  A
O1427     In1645   2.254   1_554  S
O1427      C1435   1.262   1_554  A
O1428      C1655   1.258       .  A
C1429      O1436   1.258       .  A
C1429      O1650   1.262       .  A
C1429      C1478   1.492       .  S
O1430     In1645   2.248   1_554  S
O1430      C1649   1.262   1_554  A
C1431      O1433   1.259       .  A
C1431      O1437   1.259       .  A
O1432     In1645   2.246   1_554  S
O1434     In1645   2.249   1_554  S
C1435      O1648   1.258       .  A
C1435      C1733   1.485       .  S
In1438     O1440   2.249       .  S
In1438     O1449   2.254       .  S
In1438     O1443   2.252       .  S
In1438     O1445   2.296       .  S
In1438     O1446   2.240       .  S
In1438     O1447   2.208       .  S
In1438     O1450   2.249       .  S
C1439      O1445   1.264       .  A
C1439      O1447   1.255       .  A
C1439      C1452   1.466       .  S
O1441      C1448   1.261   1_455  A
C1442      O1449   1.257       .  A
C1442      O1443   1.257       .  A
C1442      C1465   1.463       .  S
C1444      O1446   1.261       .  A
C1444      O1450   1.261       .  A
In1451     O1453   2.248       .  S
In1451     O1454   2.240       .  S
In1451     O1462   2.257       .  S
In1451     O1456   2.251       .  S
In1451     O1458   2.296       .  S
In1451     O1459   2.241       .  S
In1451     O1460   2.208       .  S
In1451     O1463   2.250       .  S
C1452      O1458   1.264       .  A
C1452      O1460   1.255       .  A
O1453      C1461   1.262       .  A
O1454      C1461   1.260       .  A
C1455      O1462   1.257       .  A
C1455      O1456   1.257       .  A
C1455      C1470   1.464       .  S
C1457      O1459   1.260       .  A
C1457      O1463   1.261       .  A
In1464     O1686   2.239       .  S
In1464     O1467   2.249       .  S
In1464     O1475   2.249       .  S
In1464     O1689   2.242       .  S
In1464     O1691   2.247       .  S
In1464     O1472   2.246       .  S
In1464     O1693   2.248       .  S
In1464     O1476   2.253       .  S
C1465      O1471   1.260       .  A
C1465      O1473   1.259       .  A
O1466     In1684   2.239   1_554  S
O1466      C1474   1.258   1_554  A
O1467      C1694   1.262       .  A
C1468      O1475   1.262       .  A
C1468      O1689   1.258       .  A
C1468      C1497   1.492       .  S
O1469     In1684   2.242   1_554  S
O1469      C1688   1.258   1_554  A
C1470      O1472   1.259       .  A
C1470      O1476   1.260       .  A
O1471     In1684   2.247   1_554  S
O1473     In1684   2.248   1_554  S
C1474      O1687   1.262       .  A
C1474      C1701   1.491       .  S
C1477      C1698   1.406   1_554  A
C1477      C1482   1.407       .  A
C1477      H1484   1.082       .  S
C1478      C1697   1.406       .  A
C1478      C1479   1.422       .  A
C1479      C1480   1.408       .  A
C1479      C1486   1.521       .  S
C1480      C1481   1.406       .  A
C1480      H1485   1.081       .  S
C1481      C1694   1.491       .  S
C1481      C1702   1.421       .  A
C1482      C1701   1.421   1_554  A
C1482      C1483   1.521       .  S
C1483      F1487   1.385       .  S
C1483      F1488   1.383       .  S
C1483      F1489   1.384       .  S
C1486      F1490   1.381       .  S
C1486      F1491   1.383       .  S
C1486      F1492   1.385       .  S
C1493      C1714   1.405   1_554  A
C1493      C1498   1.408       .  A
C1493      H1500   1.082       .  S
C1494      C1616   1.489       .  S
C1494      C1713   1.405       .  A
C1494      C1495   1.420       .  A
C1495      C1496   1.408       .  A
C1495      C1502   1.520       .  S
C1496      C1497   1.406       .  A
C1496      H1501   1.082       .  S
C1497      C1718   1.423       .  A
C1498      C1717   1.423   1_554  A
C1498      C1499   1.521       .  S
C1499      F1503   1.385       .  S
C1499      F1504   1.383       .  S
C1499      F1505   1.383       .  S
C1502      F1506   1.384       .  S
C1502      F1507   1.383       .  S
C1502      F1508   1.385       .  S
C1509      C1510   1.405       .  A
C1509      C1514   1.405       .  A
C1509      H1516   1.081       .  S
C1510      C1731   1.423       .  A
C1511      C1730   1.423   1_554  A
C1511      C1512   1.409       .  A
C1511      C1518   1.521       .  S
C1512      C1733   1.404   1_554  A
C1512      H1517   1.082       .  S
C1513      C1655   1.485       .  S
C1513      C1732   1.404       .  A
C1513      C1514   1.419       .  A
C1514      C1515   1.519       .  S
C1515      F1519   1.384       .  S
C1515      F1520   1.383       .  S
C1515      F1521   1.382       .  S
C1518      F1522   1.384       .  S
C1518      F1523   1.383       .  S
C1518      F1524   1.385       .  S
C1525      C1526   1.405       .  A
C1525      C1530   1.409       .  A
C1525      H1532   1.083       .  S
C1526      C1577   1.484       .  S
C1526      C1747   1.419       .  A
C1527      C1746   1.419       .  A
C1527      C1528   1.405       .  A
C1527      C1534   1.520       .  S
C1528      C1749   1.404   1_554  A
C1528      H1533   1.083       .  S
C1529      C1748   1.404       .  A
C1529      C1530   1.418       .  A
C1530      C1531   1.519       .  S
C1531      F1535   1.385       .  S
C1531      F1536   1.383       .  S
C1531      F1537   1.383       .  S
C1534      F1538   1.384       .  S
C1534      F1539   1.383       .  S
C1534      F1540   1.385       .  S
In1541     O1543   2.247       .  S
In1541     O1544   2.237       .  S
In1541     O1552   2.253       .  S
In1541     O1546   2.249       .  S
In1541     O1548   2.293       .  S
In1541     O1549   2.239       .  S
In1541     O1550   2.203       .  S
In1541     O1553   2.251       .  S
C1542      O1548   1.264       .  A
C1542      O1550   1.255       .  A
C1542      C1555   1.464       .  S
O1543      C1551   1.262       .  A
O1544      C1551   1.261       .  A
C1545      O1552   1.257       .  A
C1545      O1546   1.257       .  A
C1545      C1568   1.462       .  S
C1547      O1549   1.260       .  A
C1547      O1553   1.261       .  A
In1554     O1556   2.247       .  S
In1554     O1557   2.242       .  S
In1554     O1565   2.259       .  S
In1554     O1559   2.248       .  S
In1554     O1561   2.294       .  S
In1554     O1562   2.239       .  S
In1554     O1563   2.204       .  S
In1554     O1566   2.248       .  S
C1555      O1561   1.264       .  A
C1555      O1563   1.255       .  A
O1556      C1564   1.261       .  A
O1557      C1564   1.261       .  A
C1558      O1565   1.258       .  A
C1558      O1559   1.257       .  A
C1558      C1573   1.464       .  S
C1560      O1562   1.261       .  A
C1560      O1566   1.261       .  A
C1560      C1642   1.462       .  S
In1567     O1570   2.248       .  S
In1567     O1578   2.245       .  S
In1567     O1575   2.245       .  S
In1567     O1579   2.255       .  S
C1568      O1574   1.258       .  A
C1568      O1576   1.260       .  A
O1569      C1577   1.259       .  A
C1571      O1578   1.263       .  A
C1571      C1730   1.489       .  S
C1573      O1575   1.258       .  A
C1573      O1579   1.259       .  A
In1580     O1582   2.251       .  S
In1580     O1583   2.233       .  S
In1580     O1591   2.240       .  S
In1580     O1585   2.261       .  S
In1580     O1587   2.283       .  S
In1580     O1588   2.248       .  S
In1580     O1589   2.204       .  S
In1580     O1592   2.251       .  S
C1581      O1587   1.264       .  A
C1581      O1589   1.256       .  A
C1581      C1594   1.460       .  S
O1582      C1590   1.263       .  A
O1583      C1590   1.261       .  A
C1584      O1591   1.256       .  A
C1584      O1585   1.258       .  A
C1584      C1607   1.460       .  S
C1586      O1588   1.259       .  A
C1586      O1592   1.259       .  A
C1586      C1668   1.463       .  S
In1593     O1595   2.249       .  S
In1593     O1596   2.242       .  S
In1593     O1604   2.255       .  S
In1593     O1598   2.247       .  S
In1593     O1600   2.284       .  S
In1593     O1601   2.246       .  S
In1593     O1602   2.205       .  S
In1593     O1605   2.247       .  S
C1594      O1600   1.263       .  A
C1594      O1602   1.255       .  A
O1595      C1603   1.262       .  A
O1596      C1603   1.261       .  A
C1597      O1604   1.257       .  A
C1597      O1598   1.257       .  A
C1597      C1612   1.461       .  S
C1599      O1601   1.261       .  A
C1599      O1605   1.260       .  A
In1606     O1609   2.234       .  S
In1606     O1617   2.243   1_556  S
In1606     O1614   2.246       .  S
In1606     O1618   2.255       .  S
C1607      O1613   1.257       .  A
C1607      O1615   1.254       .  A
O1608      C1616   1.266       .  A
C1610      O1617   1.258   1_556  A
C1610      C1749   1.483       .  S
C1612      O1614   1.257       .  A
C1612      O1618   1.258       .  A
In1619     O1621   2.250       .  S
In1619     O1622   2.239       .  S
In1619     O1630   2.254       .  S
In1619     O1624   2.251       .  S
In1619     O1626   2.293       .  S
In1619     O1627   2.239       .  S
In1619     O1628   2.205       .  S
In1619     O1631   2.248       .  S
C1620      O1626   1.264       .  A
C1620      O1628   1.255       .  A
C1620      C1633   1.464       .  S
O1621      C1629   1.262       .  A
O1622      C1629   1.260       .  A
C1623      O1630   1.257       .  A
C1623      O1624   1.257       .  A
C1623      C1646   1.463       .  S
C1625      O1627   1.260       .  A
C1625      O1631   1.261       .  A
In1632     O1634   2.248       .  S
In1632     O1643   2.254       .  S
In1632     O1637   2.250       .  S
In1632     O1639   2.293       .  S
In1632     O1640   2.241       .  S
In1632     O1641   2.204       .  S
In1632     O1644   2.246       .  S
C1633      O1639   1.264       .  A
C1633      O1641   1.255       .  A
O1635      C1642   1.261   1_455  A
C1636      O1643   1.257       .  A
C1636      O1637   1.257       .  A
C1636      C1651   1.462       .  S
C1638      O1640   1.261       .  A
C1638      O1644   1.260       .  A
In1645     O1648   2.234       .  S
In1645     O1656   2.243       .  S
In1645     O1653   2.245       .  S
In1645     O1657   2.248       .  S
C1646      O1652   1.259       .  A
C1646      O1654   1.259       .  A
O1647      C1655   1.262       .  A
C1649      O1656   1.258       .  A
C1649      C1698   1.492       .  S
C1651      O1653   1.259       .  A
C1651      O1657   1.259       .  A
In1658     O1660   2.249       .  S
In1658     O1669   2.255       .  S
In1658     O1663   2.252       .  S
In1658     O1665   2.296       .  S
In1658     O1666   2.240       .  S
In1658     O1667   2.208       .  S
In1658     O1670   2.249       .  S
C1659      O1665   1.264       .  A
C1659      O1667   1.255       .  A
C1659      C1672   1.466       .  S
O1661      C1668   1.261   1_455  A
C1662      O1669   1.257       .  A
C1662      O1663   1.257       .  A
C1662      C1685   1.463       .  S
C1664      O1666   1.261       .  A
C1664      O1670   1.261       .  A
In1671     O1673   2.248       .  S
In1671     O1674   2.240       .  S
In1671     O1682   2.257       .  S
In1671     O1676   2.251       .  S
In1671     O1678   2.296       .  S
In1671     O1679   2.241       .  S
In1671     O1680   2.208       .  S
In1671     O1683   2.250       .  S
C1672      O1678   1.264       .  A
C1672      O1680   1.255       .  A
O1673      C1681   1.262       .  A
O1674      C1681   1.260       .  A
C1675      O1682   1.257       .  A
C1675      O1676   1.257       .  A
C1675      C1690   1.464       .  S
C1677      O1679   1.260       .  A
C1677      O1683   1.261       .  A
In1684     O1687   2.248       .  S
In1684     O1695   2.249       .  S
In1684     O1692   2.246       .  S
In1684     O1696   2.253       .  S
C1685      O1691   1.259       .  A
C1685      O1693   1.259       .  A
O1686      C1694   1.258       .  A
C1688      O1695   1.262       .  A
C1688      C1717   1.492       .  S
C1690      O1692   1.259       .  A
C1690      O1696   1.260       .  A
C1697      C1702   1.407       .  A
C1697      H1704   1.082       .  S
C1698      C1699   1.422       .  A
C1699      C1700   1.408       .  A
C1699      C1706   1.521       .  S
C1700      C1701   1.406       .  A
C1700      H1705   1.081       .  S
C1702      C1703   1.521       .  S
C1703      F1707   1.385       .  S
C1703      F1708   1.383       .  S
C1703      F1709   1.384       .  S
C1706      F1710   1.381       .  S
C1706      F1711   1.383       .  S
C1706      F1712   1.385       .  S
C1713      C1718   1.408       .  A
C1713      H1720   1.082       .  S
C1714      C1715   1.420       .  A
C1715      C1716   1.407       .  A
C1715      C1722   1.520       .  S
C1716      C1717   1.406       .  A
C1716      H1721   1.082       .  S
C1718      C1719   1.521       .  S
C1719      F1723   1.385       .  S
C1719      F1724   1.383       .  S
C1719      F1725   1.383       .  S
C1722      F1726   1.384       .  S
C1722      F1727   1.383       .  S
C1722      F1728   1.385       .  S
C1729      C1730   1.405       .  A
C1729      C1734   1.405       .  A
C1729      H1736   1.081       .  S
C1731      C1732   1.409       .  A
C1731      C1738   1.521       .  S
C1732      H1737   1.082       .  S
C1733      C1734   1.419       .  A
C1734      C1735   1.519       .  S
C1735      F1739   1.384       .  S
C1735      F1740   1.383       .  S
C1735      F1741   1.382       .  S
C1738      F1742   1.384       .  S
C1738      F1743   1.383       .  S
C1738      F1744   1.385       .  S
C1745      C1746   1.405   1_556  A
C1745      C1750   1.409       .  A
C1745      H1752   1.083       .  S
C1747      C1748   1.405       .  A
C1747      C1754   1.520       .  S
C1748      H1753   1.083       .  S
C1749      C1750   1.418       .  A
C1750      C1751   1.519       .  S
C1751      F1755   1.385       .  S
C1751      F1756   1.383       .  S
C1751      F1757   1.383       .  S
C1754      F1758   1.384       .  S
C1754      F1759   1.383       .  S
C1754      F1760   1.385       .  S
