geometry optimzed in LAMMPS
_audit_creation_date              2020-11-30 
_audit_creation_method            'lammps2cif' 
_symmetry_space_group_name_H-M    'P1' 
_symmetry_Int_Tables_number       1 
_symmetry_cell_setting            triclinic 
loop_ 
_symmetry_equiv_pos_as_xyz 
  x,y,z 
_cell_length_a                    57.38457217 
_cell_length_b                    58.236863696193254 
_cell_length_c                    43.73922592581068 
_cell_angle_alpha                 89.79009217700509 
_cell_angle_beta                  91.39977699458005 
_cell_angle_gamma                 121.97571996295875 
loop_ 
_atom_site_label 
_atom_site_type_symbol 
_atom_site_fract_x 
_atom_site_fract_y 
_atom_site_fract_z 
_atom_site_charge 
O1          O  0.35064800  0.48265617  0.24025260    -0.58000
C2          C  0.35175149  0.03761401  0.19046764     0.74600
O3          O  0.36277035  0.98285260  0.20546144    -0.59200
C4          C  0.33361736  0.45806790  0.23353364     0.74600
C5          C  0.30224665  0.00468089  0.27524124     0.77000
Cd6        Cd  0.33288419  0.99454329  0.23149191     1.37500
O7          O  0.35492091  0.04095867  0.21919317    -0.58000
O8          O  0.30819063  0.52016855  0.20813824    -0.56800
C9          C  0.36600903  0.50291875  0.13833952     0.77000
O10         O  0.29228412  0.47893511  0.21865732    -0.59200
O11         O  0.33558971  0.01371151  0.18030356    -0.57600
O12         O  0.32008202  0.45322480  0.20852137    -0.57600
O13         O  0.38128159  0.00620041  0.24660837    -0.56800
O14         O  0.05028518  0.16802383  0.18646138    -0.58000
C15         C  0.44886213  0.12654513  0.18878229     0.74600
O16         O  0.49173352  0.13855495  0.27487946    -0.59200
C17         C  0.06828930  0.18536953  0.20507736     0.74600
C18         C  0.49419440  0.20854291  0.20860645     0.77000
Cd19       Cd  0.49867915  0.16122665  0.22151441     1.37500
O20         O  0.47147106  0.13186612  0.17764484    -0.58000
O21         O  0.01059879  0.19401094  0.18292450    -0.56800
C22         C  0.00679440  0.12214683  0.26492656     0.77000
O23         O  0.49215665  0.19980116  0.23590391    -0.59200
O24         O  0.45001519  0.13692372  0.21463706    -0.57600
O25         O  0.05924676  0.19155310  0.22780864    -0.57600
O26         O  0.50036554  0.12091018  0.23731925    -0.56800
O27         O  0.46879560  0.36855638  0.19904302    -0.58000
C28         C  0.02968543  0.36870146  0.20389571     0.74600
O29         O  0.49508811  0.31470551  0.14606218    -0.59200
C30         C  0.44533245  0.34715918  0.19633097     0.74600
C31         C  0.97900765  0.37464891  0.11399185     0.77000
Cd32       Cd  0.49113403  0.35459644  0.16464811     1.37500
O33         O  0.00511899  0.35769700  0.21212934    -0.58000
O34         O  0.51181355  0.39889382  0.13677440    -0.56800
C35         C  0.48698779  0.30204269  0.17127037     0.77000
O36         O  0.47495112  0.36660436  0.11572077    -0.59200
O37         O  0.03307850  0.36725346  0.17555202    -0.57600
O38         O  0.44225109  0.32950321  0.17707121    -0.57600
O39         O  0.47928981  0.31253931  0.19057241    -0.56800
O40         O  0.16569774  0.18978913  0.25314546    -0.58000
C41         C  0.22395565  0.14843398  0.23076885     0.74600
O42         O  0.15759634  0.13419414  0.21532381    -0.59200
C43         C  0.16974079  0.19847632  0.22596461     0.74600
C44         C  0.22817602  0.20636287  0.29857801     0.77000
Cd45       Cd  0.19212657  0.16916231  0.25015586     1.37500
O46         O  0.21508319  0.14580201  0.25762762    -0.58000
O47         O  0.20604276  0.18445352  0.30536522    -0.56800
C48         C  0.14143090  0.11717482  0.23437361     0.77000
O49         O  0.23330541  0.21046657  0.27034384    -0.59200
O50         O  0.22092299  0.16389765  0.21272929    -0.57600
O51         O  0.18720527  0.19652960  0.21064358    -0.57600
O52         O  0.14806272  0.12412029  0.26247053    -0.56800
O53         O  0.12368407  0.46795615  0.27571597    -0.58000
C54         C  0.19411312  0.05426720  0.26036683     0.74600
O55         O  0.11778243  0.99493486  0.30867488    -0.59200
C56         C  0.11563629  0.44432634  0.28466379     0.74600
C57         C  0.21756607  0.01487095  0.32381643     0.77000
Cd58       Cd  0.16745538  0.01023310  0.30186423     1.37500
O59         O  0.17642959  0.03087341  0.25003229    -0.58000
O60         O  0.21749180  0.03475926  0.31228988    -0.56800
C61         C  0.12775678  0.49812711  0.37653300     0.77000
O62         O  0.19435829  0.99508919  0.33164171    -0.59200
O63         O  0.19684180  0.05693195  0.28917970    -0.57600
O64         O  0.12430446  0.44213196  0.31084917    -0.57600
O65         O  0.14464717  0.02104271  0.34438765    -0.56800
C66         C  0.45103832  0.50011433  0.06629677     0.86300
C67         C  0.45306490  0.47578235  0.07690391    -0.53900
C68         C  0.95711987  0.45686159  0.06799159     0.09200
C69         C  0.97563459  0.48102926  0.04671381     0.20200
C70         C  0.01358508  0.02419522  0.19820546    -0.54700
C71         C  0.03630594  0.02390934  0.19037181     0.09300
C72         C  0.45207078  0.49950637  0.03095396    -0.54200
C73         C  0.95556892  0.48181943  0.02280888     0.09900
H74         H  0.43915936  0.46116851  0.09324400     0.14400
H75         H  0.99237129  0.47980244  0.03623909     0.00200
H76         H  0.01599745  0.04049267  0.21225888     0.14700
H77         H  0.43657704  0.49942261  0.01613051     0.14500
C78         C  0.00030195  0.03575730  0.34465172     0.86300
C79         C  0.99495162  0.03471749  0.37937621    -0.53900
C80         C  0.02918814  0.51234865  0.50199083     0.09200
C81         C  0.02767690  0.49426007  0.47414499     0.20200
C82         C  0.02539070  0.03256891  0.34357951    -0.54700
C83         C  0.05297649  0.51318066  0.45371624     0.09300
C84         C  0.50432171  0.51622048  0.44717150    -0.54200
C85         C  0.50060977  0.49220803  0.45656236     0.09900
H86         H  0.99419555  0.05065595  0.39119438     0.14400
H87         H  0.02688466  0.47564744  0.48143612     0.00200
H88         H  0.04425531  0.04620733  0.33259703     0.14700
H89         H  0.49046552  0.51708372  0.43049388     0.14500
O90         O  0.37240787  0.36058173  0.29503287    -0.58000
C91         C  0.34377557  0.38790865  0.31600720     0.74600
O92         O  0.34117224  0.30857383  0.35700609    -0.59200
C93         C  0.38483055  0.34802132  0.29625174     0.74600
C94         C  0.40938063  0.39850456  0.39055336     0.77000
Cd95       Cd  0.36323919  0.35849262  0.34890762     1.37500
O96         O  0.35850274  0.38020544  0.30464406    -0.58000
O97         O  0.41232964  0.38769995  0.36724898    -0.56800
C98         C  0.31654470  0.30265024  0.35647832     0.77000
O99         O  0.38449047  0.38941799  0.39675293    -0.59200
O100        O  0.33763166  0.38226925  0.34386241    -0.57600
O101        O  0.38806055  0.34070983  0.32259052    -0.57600
O102        O  0.31381478  0.32278833  0.35838814    -0.56800
C103        C  0.43356426  0.42098820  0.40876706    -0.06300
C104        C  0.42889162  0.43077968  0.43597522    -0.17400
C105        C  0.45051147  0.45305647  0.45264000     0.10900
C106        C  0.47771820  0.46618393  0.44230939    -0.06200
C107        C  0.48229348  0.45714322  0.41474035    -0.17500
C108        C  0.46111798  0.43451205  0.39856557     0.10900
S109        S  0.44308582  0.46575047  0.48619710    -0.32400
S110        S  0.47093895  0.42489423  0.36442930    -0.32400
H111        H  0.46089999  0.39836978  0.37461432     0.28900
H112        H  0.41503568  0.44547101  0.48725288     0.28900
H113        H  0.40809931  0.42129550  0.44392895     0.19500
H114        H  0.50266783  0.46815200  0.40536426     0.19500
C115        C  0.95954161  0.48309269  0.98855637    -0.06300
C116        C  0.04504828  0.01557998  0.09777518    -0.17400
C117        C  0.00647702  0.02932434  0.45033440     0.10900
C118        C  0.02625158  0.50549360  0.53594947    -0.06200
C119        C  0.49944826  0.48593605  0.55126851    -0.17500
C120        C  0.45854389  0.47820797  0.96511852     0.10900
S121        S  0.03808780  0.05911192  0.43906008    -0.32400
S122        S  0.42726629  0.44934964  0.97858054    -0.32400
H123        H  0.43884601  0.44771107  0.00650913     0.28900
H124        H  0.04315223  0.04623319  0.41530961     0.28900
H125        H  0.06163305  0.02496997  0.11467719     0.19500
H126        H  0.48345085  0.47207912  0.53527398     0.19500
C127        C  0.07307957  0.50686977  0.43876570    -0.06300
C128        C  0.07366836  0.03022855  0.36400913    -0.17400
C129        C  0.09779357  0.03054383  0.35801174     0.10900
C130        C  0.11085752  0.50097198  0.40111476    -0.06200
C131        C  0.08377619  0.47923868  0.40602452    -0.17500
C132        C  0.06515530  0.48168670  0.42459472     0.10900
S133        S  0.12987097  0.06241950  0.36219082    -0.32400
S134        S  0.03085024  0.45261066  0.42767751    -0.32400
H135        H  0.03589384  0.43338937  0.41544531     0.28900
H136        H  0.14155536  0.05186730  0.38195305     0.28900
H137        H  0.07562767  0.04896144  0.37126370     0.19500
H138        H  0.07661679  0.46034185  0.39401285     0.19500
C139        C  0.24759218  0.22672505  0.32174327    -0.06300
C140        C  0.27308097  0.22929833  0.32728189    -0.17400
C141        C  0.29523161  0.25246229  0.34193571     0.10900
C142        C  0.29231461  0.27438911  0.35026004    -0.06200
C143        C  0.26592102  0.27049860  0.34713964    -0.16700
C144        C  0.24367627  0.24697948  0.33342282     0.10900
S145        S  0.32729655  0.25397625  0.34801839    -0.32400
S146        S  0.21149828  0.24525172  0.32871701    -0.32400
H147        H  0.19481310  0.21692546  0.33037769     0.28900
H148        H  0.31759995  0.22700882  0.33964691     0.28900
H149        H  0.27606351  0.21367951  0.31856309     0.19500
H150        H  0.26284458  0.28658244  0.35382089     0.19500
C151        C  0.06434439  0.04491502  0.20330903    -0.06300
C152        C  0.08639562  0.05824707  0.18354537    -0.17400
C153        C  0.11191790  0.08070278  0.19332723     0.10900
C154        C  0.11591107  0.09108618  0.22378116    -0.06200
C155        C  0.09426784  0.07678264  0.24399870    -0.17500
C156        C  0.06900551  0.05382063  0.23445310     0.10900
S157        S  0.13846797  0.09474502  0.16548811    -0.32400
S158        S  0.04399334  0.03680268  0.26377386    -0.32400
H159        H  0.03014077  0.01116263  0.24979026     0.28900
H160        H  0.15868258  0.09796746  0.18676291     0.28900
H161        H  0.08357144  0.05158252  0.15994332     0.19500
H162        H  0.09684483  0.08372834  0.26749853     0.19500
C163        C  0.21113649  0.07795697  0.24093034    -0.06300
C164        C  0.23611216  0.09896711  0.25379789    -0.17400
C165        C  0.24788242  0.12531562  0.24313005     0.10900
C166        C  0.23334518  0.13066019  0.22090876    -0.06200
C167        C  0.21413294  0.10907942  0.20203946    -0.17500
C168        C  0.20196170  0.08231767  0.21248577     0.10900
S169        S  0.27712364  0.15225332  0.26375957    -0.32400
S170        S  0.17307544  0.05509380  0.19150548    -0.32400
H171        H  0.17715045  0.06956116  0.16427417     0.28900
H172        H  0.28088708  0.17268896  0.24343845     0.28900
H173        H  0.24495228  0.09545358  0.27411257     0.19500
H174        H  0.20484704  0.11331269  0.18277424     0.19500
C175        C  0.42367987  0.34249613  0.21688929    -0.06300
C176        C  0.41809839  0.32449086  0.24090078    -0.17400
C177        C  0.40390712  0.32449381  0.26636120     0.10900
C178        C  0.39569870  0.34344623  0.26817867    -0.06200
C179        C  0.39934639  0.35985001  0.24274145    -0.17500
C180        C  0.41319845  0.35950736  0.21712773     0.10900
S181        S  0.39739934  0.30013643  0.29566251    -0.32400
S182        S  0.41795856  0.38198593  0.18608374    -0.32400
H183        H  0.42169013  0.36727983  0.16335024     0.28900
H184        H  0.37041971  0.29370942  0.30034700     0.28900
H185        H  0.42611731  0.31130706  0.24055423     0.19500
H186        H  0.39247013  0.37395181  0.24325048     0.19500
C187        C  0.05317756  0.38374769  0.22587757    -0.06300
C188        C  0.07890366  0.40279295  0.21417602    -0.17400
C189        C  0.10054127  0.42139541  0.23346973     0.10900
C190        C  0.09643860  0.42103121  0.26517226    -0.06200
C191        C  0.07179713  0.40043431  0.27731234    -0.17500
C192        C  0.05023005  0.38158100  0.25809462     0.10900
S193        S  0.13323816  0.44592642  0.21742720    -0.32400
S194        S  0.01955757  0.35574380  0.27627650    -0.32400
H195        H  0.01514819  0.33505554  0.25593408     0.28900
H196        H  0.12587165  0.43777018  0.18666938     0.28900
H197        H  0.08167256  0.40405739  0.18970910     0.19500
H198        H  0.06881328  0.39984043  0.30174580     0.19500
C199        C  0.97419226  0.39441326  0.09662535    -0.06300
C200        C  0.46390425  0.40526229  0.08718812    -0.17400
C201        C  0.45858621  0.42463705  0.07508174     0.10900
C202        C  0.96228716  0.43438011  0.07601212    -0.06200
C203        C  0.98950218  0.44055764  0.07971253    -0.17500
C204        C  0.99560768  0.42104436  0.08922966     0.10900
S205        S  0.42454851  0.41308912  0.05991165    -0.32400
S206        S  0.03128828  0.43145575  0.09091835    -0.32400
H207        H  0.02641945  0.40643688  0.08035655     0.28900
H208        H  0.41244691  0.38549363  0.06668653     0.28900
H209        H  0.44709370  0.38447515  0.08923941     0.19500
H210        H  0.00639177  0.46099186  0.07565642     0.19500
C211        C  0.49196161  0.23246797  0.19972203    -0.06300
C212        C  0.48661724  0.23552744  0.16867657    -0.17400
C213        C  0.48420524  0.25729511  0.15860850     0.10900
C214        C  0.48762904  0.27725613  0.17970257    -0.06200
C215        C  0.97239319  0.25000239  0.19534080    -0.17500
C216        C  0.97745439  0.23030843  0.20676058     0.10900
S217        S  0.47540724  0.25766987  0.11888534    -0.32400
S218        S  0.95860127  0.21152229  0.23954415    -0.32400
H219        H  0.98255206  0.22098692  0.25783370     0.28900
H220        H  0.45775716  0.26704413  0.12437065     0.28900
H221        H  0.48376854  0.22049980  0.15197668     0.19500
H222        H  0.95839704  0.25361092  0.20752460     0.19500
C223        C  0.09825890  0.19649257  0.20225034    -0.06300
C224        C  0.11637812  0.21574617  0.22420257    -0.17400
C225        C  0.14285255  0.22079720  0.22922755     0.10900
C226        C  0.15150254  0.20639620  0.21205865    -0.06200
C227        C  0.13553309  0.19103131  0.18669250    -0.17500
C228        C  0.10880992  0.18560913  0.18165042     0.10900
S229        S  0.16388529  0.24389362  0.25965582    -0.32400
S230        S  0.08807275  0.16277166  0.15073020    -0.32400
H231        H  0.10679201  0.15565574  0.14159535     0.28900
H232        H  0.18888547  0.24794085  0.24954862     0.28900
H233        H  0.10925761  0.22539814  0.23922501     0.19500
H234        H  0.14261773  0.18045933  0.17318430     0.19500
C235        C  0.00304627  0.06072800  0.32694685    -0.06300
C236        C  0.02685476  0.07853248  0.31021634    -0.17400
C237        C  0.02866320  0.09889245  0.29118502     0.10900
C238        C  0.00664296  0.10307235  0.28841793    -0.06200
C239        C  0.47572827  0.08646927  0.30937950    -0.17500
C240        C  0.47198045  0.06366225  0.32607013     0.10900
S241        S  0.06017552  0.11898387  0.27075809    -0.32400
S242        S  0.44346297  0.04692828  0.35156712    -0.32400
H243        H  0.43347731  0.06417219  0.34708751     0.28900
H244        H  0.06019142  0.14313506  0.27165797     0.28900
H245        H  0.04465952  0.07723884  0.31086910     0.19500
H246        H  0.46246882  0.09407236  0.31344303     0.19500
C247        C  0.24236253  0.01280930  0.32261643    -0.06300
C248        C  0.23279137  0.47836758  0.28100983    -0.17400
C249        C  0.25143777  0.47699262  0.26167391     0.10900
C250        C  0.28374830  0.00696882  0.29643478    -0.06200
C251        C  0.28952337  0.03256217  0.30569593    -0.17500
C252        C  0.26919468  0.03570931  0.31883578     0.10900
S253        S  0.25385280  0.44752816  0.26562602    -0.32400
S254        S  0.27832272  0.06953761  0.32884801    -0.32400
H255        H  0.25876564  0.06143003  0.35180008     0.28900
H256        H  0.24644563  0.43973084  0.23476889     0.28900
H257        H  0.22054907  0.46154323  0.29602672     0.19500
H258        H  0.30938519  0.05034527  0.30096942     0.19500
C259        C  0.33009684  0.43687269  0.25482370    -0.06300
C260        C  0.33551660  0.44396078  0.28602738    -0.17400
C261        C  0.33839620  0.42755668  0.30709474     0.10900
C262        C  0.33528752  0.40315920  0.29696399    -0.06200
C263        C  0.32769210  0.39498665  0.26624217    -0.17500
C264        C  0.32467552  0.41137689  0.24514893     0.10900
S265        S  0.34898068  0.44035029  0.34563620    -0.32400
S266        S  0.31652861  0.39980086  0.20599949    -0.32400
H267        H  0.29360547  0.40254676  0.20416771     0.28900
H268        H  0.37012906  0.43493604  0.34762215     0.28900
H269        H  0.33917837  0.46328011  0.29383164     0.19500
H270        H  0.32511493  0.37612184  0.25836677     0.19500
C271        C  0.42196340  0.10756588  0.17400816    -0.06300
C272        C  0.41810620  0.08421595  0.15982501    -0.17400
C273        C  0.39186845  0.06077229  0.15756809     0.10900
C274        C  0.36962092  0.06058338  0.17100605    -0.06200
C275        C  0.37268305  0.08532333  0.17899145    -0.17500
C276        C  0.39870811  0.10897963  0.18031695     0.10900
S277        S  0.38908814  0.03036405  0.14349609    -0.32400
S278        S  0.40125627  0.13959450  0.19337919    -0.32400
H279        H  0.42650776  0.15725547  0.17957205     0.28900
H280        H  0.36190268  0.01886661  0.13234744     0.28900
H281        H  0.43572339  0.08317023  0.15375673     0.19500
H282        H  0.35549389  0.08555592  0.18836772     0.19500
C283        C  0.42603079  0.50089759  0.07934295    -0.06300
C284        C  0.46042015  0.02181474  0.21028141    -0.17400
C285        C  0.43668401  0.02036610  0.22098287     0.10900
C286        C  0.38460381  0.50326319  0.11369015    -0.06200
C287        C  0.37967888  0.47872997  0.10111769    -0.17500
C288        C  0.39927431  0.47751986  0.08295081     0.10900
S289        S  0.44140416  0.04914282  0.24189045    -0.32400
S290        S  0.38903749  0.44625925  0.06328375    -0.32400
H291        H  0.36126861  0.43205317  0.07137676     0.28900
H292        H  0.42140101  0.05088291  0.22456623     0.28900
H293        H  0.47967536  0.03977186  0.21665938     0.19500
H294        H  0.36045826  0.46024265  0.10587279     0.19500
O295        O  0.29920917  0.43335500  0.68602149    -0.58000
C296        C  0.37367447  0.04282435  0.74956946     0.74600
O297        O  0.34026428  0.98603909  0.65221583    -0.59200
C298        C  0.30272118  0.43777107  0.65756539     0.74600
C299        C  0.28725790  0.99931972  0.72491851     0.77000
Cd300      Cd  0.33740012  0.00012264  0.70789652     1.37500
O301        O  0.36116024  0.01807737  0.75662205    -0.58000
O302        O  0.29159995  0.46677434  0.74469055    -0.56800
C303        C  0.37546658  0.47777122  0.71600115     0.77000
O304        O  0.29582143  0.49761674  0.71463758    -0.59200
O305        O  0.36884290  0.04808652  0.72282988    -0.57600
O306        O  0.31209572  0.46179501  0.64883191    -0.57600
O307        O  0.37663959  0.01905489  0.67263710    -0.56800
O308        O  0.03059571  0.15792899  0.80630377    -0.58000
C309        C  0.46627953  0.12182857  0.82176968     0.74600
O310        O  0.51863218  0.13966971  0.90102877    -0.59200
C311        C  0.05583538  0.17582834  0.80514946     0.74600
C312        C  0.52688275  0.21316414  0.84480488     0.77000
Cd313      Cd  0.51970573  0.15919276  0.84715096     1.37500
O314        O  0.48654918  0.13723203  0.80556572    -0.58000
O315        O  0.04670863  0.21589768  0.86037720    -0.56800
C316        C  0.03716114  0.13627003  0.90751542     0.77000
O317        O  0.50431126  0.19226932  0.85196926    -0.59200
O318        O  0.47017503  0.12405892  0.85053071    -0.57600
O319        O  0.06734660  0.18855285  0.82994819    -0.57600
O320        O  0.53670794  0.13005281  0.86511443    -0.56800
O321        O  0.47891115  0.31469775  0.73095576    -0.58000
C322        C  0.07388153  0.36278098  0.70820300     0.74600
O323        O  0.52609974  0.29343513  0.74577146    -0.59200
C324        C  0.47338934  0.30740335  0.70311768     0.74600
C325        C  0.02166717  0.38396258  0.72397100     0.77000
Cd326      Cd  0.52708511  0.33452101  0.72800056     1.37500
O327        O  0.07086021  0.36354795  0.73676125    -0.58000
O328        O  0.52623138  0.37565835  0.74572734    -0.56800
C329        C  0.52725480  0.29812556  0.77427917     0.77000
O330        O  0.53213101  0.37275793  0.69803057    -0.59200
O331        O  0.05364173  0.34450871  0.69236448    -0.57600
O332        O  0.49234017  0.30847987  0.68744995    -0.57600
O333        O  0.52817281  0.31968212  0.78196288    -0.56800
O334        O  0.12750298  0.15962115  0.71976933    -0.58000
C335        C  0.16000139  0.12459397  0.71425864     0.74600
O336        O  0.11881817  0.13466689  0.62117512    -0.59200
C337        C  0.11545121  0.17059346  0.70810312     0.74600
C338        C  0.19716214  0.20212857  0.66931354     0.77000
Cd339      Cd  0.14372434  0.15214040  0.67336651     1.37500
O340        O  0.14216353  0.13006850  0.72099507    -0.58000
O341        O  0.19274597  0.18068503  0.65630374    -0.56800
C342        C  0.10261161  0.11067962  0.63038701     0.77000
O343        O  0.17610218  0.20093433  0.67931092    -0.59200
O344        O  0.16983123  0.13110251  0.68775469    -0.57600
O345        O  0.11529487  0.17243006  0.67918536    -0.57600
O346        O  0.10657607  0.10659666  0.65784277    -0.56800
O347        O  0.13375054  0.48218460  0.73486571    -0.58000
C348        C  0.16746311  0.05096362  0.79262151     0.74600
O349        O  0.15225201  0.01051454  0.88035456    -0.59200
C350        C  0.12721932  0.45807054  0.74090651     0.74600
C351        C  0.20714239  0.00470108  0.80148623     0.77000
Cd352      Cd  0.15779194  0.00357927  0.82235269     1.37500
O353        O  0.14996965  0.02729902  0.78329699    -0.58000
O354        O  0.20526291  0.02536384  0.80212009    -0.56800
C355        C  0.09310128  0.49002985  0.81126939     0.77000
O356        O  0.18834663  0.98429300  0.81548807    -0.59200
O357        O  0.18005577  0.05341660  0.81782404    -0.57600
O358        O  0.12519888  0.45125888  0.76885168    -0.57600
O359        O  0.11594810  0.98921235  0.85251571    -0.56800
C360        C  0.48341333  0.49301332  0.68594183     0.86300
C361        C  0.48878964  0.47059991  0.69490569    -0.53900
C362        C  0.00943564  0.47299831  0.68195643     0.09200
C363        C  0.02736213  0.49838688  0.66175226     0.20200
C364        C  0.98087918  0.02560218  0.58594635    -0.54700
C365        C  0.00152170  0.02386553  0.57390374     0.09300
C366        C  0.48605423  0.49508262  0.65074043    -0.54200
C367        C  0.00786801  0.49590576  0.63457800     0.09900
H368        H  0.47475686  0.45358013  0.70882066     0.14400
H369        H  0.04673171  0.50045256  0.65431501     0.00200
H370        H  0.98569342  0.04113552  0.60285789     0.14700
H371        H  0.47007814  0.49397357  0.63583017     0.14500
C372        C  0.03699310  0.04415258  0.96585910     0.86300
C373        C  0.03920390  0.04110891  0.00062406    -0.53900
C374        C  0.97014319  0.49651445  0.88986705     0.09200
C375        C  0.97235501  0.47910095  0.86438350     0.20200
C376        C  0.05808957  0.03850923  0.95216848    -0.54700
C377        C  0.99823716  0.49891873  0.84584163     0.09300
C378        C  0.46997061  0.50245861  0.82437658    -0.54200
C379        C  0.46737771  0.47950978  0.83623207     0.09900
H380        H  0.04148891  0.05625291  0.01689936     0.14400
H381        H  0.97264078  0.46139232  0.87334841     0.00200
H382        H  0.07282767  0.05096177  0.93518732     0.14700
H383        H  0.45689677  0.50175441  0.80552863     0.14500
O384        O  0.38819695  0.34192460  0.67515670    -0.58000
C385        C  0.33522152  0.37293027  0.66782596     0.74600
O386        O  0.31117102  0.31171774  0.72476703    -0.59200
C387        C  0.38829531  0.32494365  0.69346897     0.74600
C388        C  0.39233090  0.38876814  0.75525467     0.77000
Cd389      Cd  0.35704187  0.34875658  0.70650373     1.37500
O390        O  0.35557662  0.37194483  0.65887424    -0.58000
O391        O  0.39894067  0.39077979  0.72747741    -0.56800
C392        C  0.30466384  0.29781693  0.70010624     0.77000
O393        O  0.36860261  0.36858891  0.76111282    -0.59200
O394        O  0.32753822  0.36525745  0.69479847    -0.57600
O395        O  0.37472900  0.32019434  0.71757983    -0.57600
O396        O  0.32296261  0.30667019  0.68015242    -0.56800
C397        C  0.41157599  0.40914143  0.77918546    -0.06300
C398        C  0.40131864  0.41785734  0.80241439    -0.17400
C399        C  0.41914258  0.43937033  0.82279510     0.10900
C400        C  0.44801100  0.45270334  0.82033092    -0.06200
C401        C  0.45817953  0.44334634  0.79778516    -0.17500
C402        C  0.44048037  0.42142301  0.77812344     0.10900
S403        S  0.40499923  0.45061382  0.85124910    -0.32400
S404        S  0.45598245  0.40941678  0.75258993    -0.32400
H405        H  0.43517004  0.38190548  0.75474457     0.28900
H406        H  0.37728901  0.43031025  0.84563397     0.28900
H407        H  0.37930809  0.40856090  0.80378229     0.19500
H408        H  0.48015098  0.45370348  0.79479955     0.19500
C409        C  0.01440356  0.49746318  0.60063273    -0.06300
C410        C  0.00079230  0.02634455  0.48191480    -0.17400
C411        C  0.05163131  0.01956304  0.06627728     0.10900
C412        C  0.96786907  0.49058369  0.92375298    -0.06200
C413        C  0.46266766  0.47993240  0.93311768    -0.17500
C414        C  0.49503953  0.48160722  0.58311308     0.10900
S415        S  0.08743165  0.03911925  0.05689795    -0.32400
S416        S  0.46350272  0.45156921  0.59391975    -0.32400
H417        H  0.47456339  0.44716949  0.62072384     0.28900
H418        H  0.08413713  0.02744239  0.02778640     0.28900
H419        H  0.01473656  0.04243954  0.49762519     0.19500
H420        H  0.44664430  0.46472425  0.91809270     0.19500
C421        C  0.02101749  0.49424835  0.83666340    -0.06300
C422        C  0.09991434  0.01648845  0.95113891    -0.17400
C423        C  0.11783629  0.01350405  0.93200586     0.10900
C424        C  0.06774373  0.49019262  0.82124478    -0.06200
C425        C  0.05409642  0.49723747  0.79942956    -0.17500
C426        C  0.03116886  0.49904207  0.80647616     0.10900
S427        S  0.15295022  0.02857883  0.94511090    -0.32400
S428        S  0.01391001  0.50541778  0.77552129    -0.32400
H429        H  0.03702047  0.51942792  0.75710721     0.28900
H430        H  0.15401486  0.00566381  0.93769448     0.28900
H431        H  0.10817037  0.02842485  0.97198612     0.19500
H432        H  0.06114317  0.50098673  0.77620690     0.19500
C433        C  0.22517072  0.22688090  0.67507634    -0.06300
C434        C  0.22713090  0.24734326  0.69415494    -0.17400
C435        C  0.25249346  0.26965620  0.70402333     0.10900
C436        C  0.27715963  0.27285244  0.69373071    -0.06200
C437        C  0.27538469  0.25281077  0.67410818    -0.16700
C438        C  0.24990837  0.22967443  0.66525823     0.10900
S439        S  0.25182108  0.29374090  0.72902903    -0.32400
S440        S  0.24973308  0.20421077  0.64157787    -0.32400
H441        H  0.27807766  0.21439516  0.64403799     0.28900
H442        H  0.26653615  0.29002732  0.75267779     0.28900
H443        H  0.20864410  0.24564792  0.70242585     0.19500
H444        H  0.29417885  0.25523344  0.66581562     0.19500
C445        C  0.03063251  0.04396292  0.58373736    -0.06300
C446        C  0.04435311  0.06975872  0.57038383    -0.17400
C447        C  0.06842945  0.09189161  0.58403969     0.10900
C448        C  0.07957248  0.08809268  0.61152893    -0.06200
C449        C  0.06645734  0.06180821  0.62373292    -0.17500
C450        C  0.04191821  0.04018308  0.61086480     0.10900
S451        S  0.08300516  0.12504764  0.56747255    -0.32400
S452        S  0.02351414  0.00873642  0.63136692    -0.32400
H453        H  0.04203769  0.01629651  0.65644517     0.28900
H454        H  0.06537382  0.11700663  0.54150744     0.28900
H455        H  0.03503380  0.07293749  0.55030748     0.19500
H456        H  0.07460761  0.05846303  0.64468147     0.19500
C457        C  0.17244605  0.07400830  0.77411501    -0.06300
C458        C  0.16841700  0.09361954  0.78673215    -0.17400
C459        C  0.16640133  0.11197001  0.76789273     0.10900
C460        C  0.16791462  0.11020816  0.73577265    -0.06200
C461        C  0.17465877  0.09226165  0.72367023    -0.17500
C462        C  0.17700645  0.07415959  0.74257980     0.10900
S463        S  0.16160907  0.13682278  0.78619091    -0.32400
S464        S  0.18520142  0.05081466  0.72633931    -0.32400
H465        H  0.18654755  0.05888727  0.69576018     0.28900
H466        H  0.17699334  0.15738088  0.76503880     0.28900
H467        H  0.16546508  0.09377755  0.81109606     0.19500
H468        H  0.17658427  0.09139169  0.69920393     0.19500
C469        C  0.44700209  0.30157572  0.68981398    -0.06300
C470        C  0.42374325  0.28650094  0.70758511    -0.17400
C471        C  0.40228498  0.29124155  0.70640532     0.10900
C472        C  0.40472684  0.31250934  0.68807895    -0.06200
C473        C  0.42596700  0.32459928  0.66699575    -0.17500
C474        C  0.44680638  0.31890929  0.66726511     0.10900
S475        S  0.37335880  0.27051827  0.73021848    -0.32400
S476        S  0.47488362  0.33782648  0.64185281    -0.32400
H477        H  0.47785484  0.31584699  0.63557731     0.28900
H478        H  0.35388792  0.26963623  0.70923930     0.28900
H479        H  0.42340941  0.27265632  0.72446716     0.19500
H480        H  0.42761828  0.34011822  0.65182531     0.19500
C481        C  0.09803513  0.38587251  0.69449656    -0.06300
C482        C  0.09206465  0.40415106  0.68070801    -0.17400
C483        C  0.10395660  0.43045480  0.69298538     0.10900
C484        C  0.12317136  0.43824983  0.71740140    -0.06200
C485        C  0.13473987  0.42265973  0.72381131    -0.17500
C486        C  0.12278728  0.39665963  0.71150604     0.10900
S487        S  0.09167012  0.45192784  0.68085128    -0.32400
S488        S  0.13500674  0.37555701  0.72501354    -0.32400
H489        H  0.11760070  0.35360535  0.70539371     0.28900
H490        H  0.07663612  0.43629960  0.65499155     0.28900
H491        H  0.07406773  0.39631077  0.66573268     0.19500
H492        H  0.15098802  0.42943013  0.74112161     0.19500
C493        C  0.02070961  0.40846780  0.71464408    -0.06300
C494        C  0.53126169  0.41926797  0.68088767    -0.17400
C495        C  0.52754988  0.44044119  0.67153569     0.10900
C496        C  0.01605468  0.45236916  0.69245526    -0.06200
C497        C  0.01593504  0.44719066  0.72400626    -0.17500
C498        C  0.01861727  0.42597139  0.73526095     0.10900
S499        S  0.52910468  0.44856107  0.63146969    -0.32400
S500        S  0.01827983  0.42197506  0.77606633    -0.32400
H501        H  0.04331129  0.42293096  0.77706168     0.28900
H502        H  0.53574323  0.42999496  0.62086140     0.28900
H503        H  0.53517747  0.40847765  0.66371923     0.19500
H504        H  0.01347287  0.45975852  0.74015662     0.19500
C505        C  0.52845349  0.23838230  0.83311282    -0.06300
C506        C  0.50362008  0.23702660  0.82602417    -0.17400
C507        C  0.50284426  0.25693997  0.80844740     0.10900
C508        C  0.52737797  0.27906358  0.79713619    -0.06200
C509        C  0.00160978  0.25998763  0.81580697    -0.17500
C510        C  0.00057430  0.23961117  0.83428736     0.10900
S511        S  0.46958331  0.25179510  0.79924275    -0.32400
S512        S  0.96711489  0.21337411  0.84649696    -0.32400
H513        H  0.97634213  0.21249300  0.87634039     0.28900
H514        H  0.47850927  0.27930594  0.79674838     0.28900
H515        H  0.48431088  0.21954137  0.83287475     0.19500
H516        H  0.98258628  0.25849613  0.80887196     0.19500
C517        C  0.07122019  0.18044607  0.77676182    -0.06300
C518        C  0.10002038  0.19492430  0.77895458    -0.17400
C519        C  0.11542864  0.19493347  0.75479994     0.10900
C520        C  0.10185404  0.17985458  0.72805207    -0.06200
C521        C  0.07355935  0.16843731  0.72412058    -0.17500
C522        C  0.05796988  0.16874787  0.74812914     0.10900
S523        S  0.15230613  0.21324274  0.75994631    -0.32400
S524        S  0.02130878  0.15321421  0.74185947    -0.32400
H525        H  0.02042087  0.14741982  0.71050645     0.28900
H526        H  0.15790224  0.21771136  0.72862005     0.28900
H527        H  0.11060584  0.20505472  0.80015706     0.19500
H528        H  0.06342562  0.15737081  0.70319178     0.19500
C529        C  0.03943572  0.07130925  0.95581402    -0.06300
C530        C  0.06242888  0.09140693  0.93974826    -0.17400
C531        C  0.06329119  0.11389783  0.92635162     0.10900
C532        C  0.04047846  0.11701800  0.92794660    -0.06200
C533        C  0.51292522  0.09060402  0.93321221    -0.17500
C534        C  0.51318604  0.06900066  0.94809529     0.10900
S535        S  0.09466602  0.13826362  0.90805325    -0.32400
S536        S  0.48599673  0.04829041  0.97416833    -0.32400
H537        H  0.47007670  0.05976980  0.96849531     0.28900
H538        H  0.09365067  0.16084377  0.91727080     0.28900
H539        H  0.08055561  0.09042621  0.93781631     0.19500
H540        H  0.49606765  0.09355108  0.93664709     0.19500
C541        C  0.22865367  0.00383866  0.78303584    -0.06300
C542        C  0.21668862  0.46480810  0.77756556    -0.17400
C543        C  0.23753946  0.46172305  0.76526619     0.10900
C544        C  0.26506997  0.00040160  0.74159206    -0.06200
C545        C  0.27088722  0.02545984  0.75330282    -0.17500
C546        C  0.25332005  0.02744095  0.77371755     0.10900
S547        S  0.23121472  0.42799783  0.76345560    -0.32400
S548        S  0.26440906  0.06079556  0.78793766    -0.32400
H549        H  0.25616329  0.05228379  0.81803537     0.28900
H550        H  0.24021782  0.43033937  0.73332515     0.28900
H551        H  0.19801715  0.44704052  0.78529455     0.19500
H552        H  0.29000576  0.04374495  0.74758576     0.19500
C553        C  0.30116601  0.41681455  0.63742262    -0.06300
C554        C  0.28304779  0.39016740  0.64658333    -0.17400
C555        C  0.29293131  0.37322969  0.65265396     0.10900
C556        C  0.32115625  0.38322784  0.64887170    -0.06200
C557        C  0.33673711  0.40671014  0.63174682    -0.17500
C558        C  0.32615420  0.42295953  0.62447254     0.10900
S559        S  0.26938411  0.34036262  0.66811144    -0.32400
S560        S  0.34769627  0.45393989  0.60437071    -0.32400
H561        H  0.32590827  0.45704484  0.59488926     0.28900
H562        H  0.28424249  0.32865568  0.65913752     0.28900
H563        H  0.26285452  0.38430903  0.65437842     0.19500
H564        H  0.35788888  0.41378084  0.62671591     0.19500
C565        C  0.43994974  0.10175761  0.80715044    -0.06300
C566        C  0.42874226  0.11046757  0.78447505    -0.17400
C567        C  0.40569229  0.09189978  0.76682713     0.10900
C568        C  0.39414030  0.06383097  0.77111528    -0.06200
C569        C  0.40452704  0.05533529  0.79515150    -0.17500
C570        C  0.42741192  0.07389996  0.81288834     0.10900
S571        S  0.39216262  0.10544321  0.73954110    -0.32400
S572        S  0.44109858  0.06060087  0.84041568    -0.32400
H573        H  0.46888755  0.07903476  0.83406854     0.28900
H574        H  0.36449783  0.08588870  0.74523302     0.28900
H575        H  0.43821940  0.13193721  0.78029264     0.19500
H576        H  0.39594370  0.03395192  0.79897477     0.19500
C577        C  0.45503175  0.48735836  0.69730368    -0.06300
C578        C  0.42834915  0.02221425  0.60103638    -0.17400
C579        C  0.41043242  0.02496147  0.61993273     0.10900
C580        C  0.40278365  0.47964851  0.71405835    -0.06200
C581        C  0.40428866  0.46062864  0.69577074    -0.17500
C582        C  0.42962716  0.46393179  0.68768186     0.10900
S583        S  0.42351837  0.05798410  0.63674416    -0.32400
S584        S  0.42876641  0.43785593  0.66451970    -0.32400
H585        H  0.40041801  0.41900287  0.66584758     0.28900
H586        H  0.39850895  0.05691693  0.63333723     0.28900
H587        H  0.44816992  0.04024759  0.59769033     0.19500
H588        H  0.38537385  0.44344299  0.68661708     0.19500
O589        O  0.30981644  0.94992710  0.25149584    -0.58000
C590        C  0.38472603  0.54394950  0.23316763     0.74600
O591        O  0.34541026  0.48129852  0.14808510    -0.59200
C592        C  0.29421537  0.93828668  0.22827975     0.74600
C593        C  0.28977259  0.49905860  0.22150080     0.77000
Cd594      Cd  0.33981734  0.50170954  0.19795454     1.37500
O595        O  0.38136021  0.52085938  0.22937435    -0.58000
O596        O  0.32490166  0.00714937  0.28369861    -0.56800
C597        C  0.38400400  0.99552240  0.22260261     0.77000
O598        O  0.29518478  0.99907826  0.24727458    -0.59200
O599        O  0.36712919  0.54797280  0.22037316    -0.57600
O600        O  0.29568562  0.95324406  0.20624046    -0.57600
O601        O  0.37110551  0.52392005  0.15281395    -0.56800
O602        O  0.01225758  0.64757889  0.30278087    -0.58000
C603        C  0.47307830  0.61985886  0.31421478     0.74600
O604        O  0.50920972  0.63490995  0.39805837    -0.59200
C605        C  0.03817753  0.66147953  0.30463147     0.74600
C606        C  0.51463516  0.70862732  0.34171672     0.77000
Cd607      Cd  0.52053248  0.66114364  0.34756284     1.37500
O608        O  0.49741939  0.62962328  0.30562502    -0.58000
O609        O  0.02366853  0.70334752  0.36803589    -0.56800
C610        C  0.01790744  0.62476116  0.40252268     0.77000
O611        O  0.49670659  0.68476132  0.33365108    -0.59200
O612        O  0.47039931  0.62789362  0.34008546    -0.57600
O613        O  0.04872799  0.67323474  0.33010860    -0.57600
O614        O  0.54655190  0.64456731  0.37757549    -0.56800
O615        O  0.46988073  0.82081555  0.25200247    -0.58000
C616        C  0.07401317  0.86096200  0.25025735     0.74600
O617        O  0.51249047  0.79473972  0.25164412    -0.59200
C618        C  0.45928942  0.80898993  0.22649779     0.74600
C619        C  0.01877988  0.88578173  0.23813718     0.77000
Cd620      Cd  0.51601585  0.83749166  0.23906506     1.37500
O621        O  0.06352781  0.86278799  0.27464532    -0.58000
O622        O  0.52107294  0.88237981  0.25205294    -0.56800
C623        C  0.51674148  0.79867648  0.28037459     0.77000
O624        O  0.51311437  0.86874782  0.20475631    -0.59200
O625        O  0.05778057  0.84545821  0.22896172    -0.57600
O626        O  0.47508871  0.80821736  0.20703693    -0.57600
O627        O  0.52106757  0.82112902  0.29072708    -0.56800
O628        O  0.10698426  0.63320172  0.21653651    -0.58000
C629        C  0.13958056  0.60017196  0.19744419     0.74600
O630        O  0.10757556  0.61422033  0.11358132    -0.59200
C631        C  0.09900499  0.64918443  0.21029132     0.74600
C632        C  0.18153544  0.68278579  0.17051858     0.77000
Cd633      Cd  0.12646315  0.63484325  0.16757362     1.37500
O634        O  0.13361397  0.61511831  0.21177400    -0.58000
O635        O  0.16232984  0.68437140  0.15759718    -0.56800
C636        C  0.08475234  0.59536434  0.12383332     0.77000
O637        O  0.17614273  0.65921703  0.17599804    -0.59200
O638        O  0.13918004  0.60083564  0.16846667    -0.57600
O639        O  0.10272090  0.65824786  0.18324074    -0.57600
O640        O  0.08157024  0.59691834  0.15203779    -0.56800
O641        O  0.15115101  0.97906973  0.25771933    -0.58000
C642        C  0.14963748  0.52814234  0.27722659     0.74600
O643        O  0.12096342  0.47549839  0.36479043    -0.59200
C644        C  0.15202470  0.96058178  0.27212782     0.74600
C645        C  0.20601303  0.49880381  0.29918175     0.77000
Cd646      Cd  0.15312631  0.49239862  0.31878192     1.37500
O647        O  0.13039914  0.50369882  0.27962794    -0.58000
O648        O  0.20220677  0.51819185  0.30126179    -0.56800
C649        C  0.12036142  0.00760240  0.33315125     0.77000
O650        O  0.18768330  0.47725890  0.31188793    -0.59200
O651        O  0.16980975  0.53654425  0.29594857    -0.57600
O652        O  0.15952581  0.96539261  0.30003380    -0.57600
O653        O  0.14855667  0.51799273  0.36443913    -0.56800
C654        C  0.48574563  0.00282823  0.18025030     0.86300
C655        C  0.48617136  0.97756178  0.18965985    -0.53900
C656        C  0.00931376  0.97453633  0.18884138     0.09200
C657        C  0.02930835  0.99935476  0.16936169     0.20200
C658        C  0.96571113  0.50813944  0.07960162    -0.54700
C659        C  0.98626027  0.50655338  0.06701004     0.09300
C660        C  0.48954321  0.00470848  0.14513085    -0.54200
C661        C  0.01136821  0.99967264  0.14179744     0.09900
H662        H  0.47043697  0.96177512  0.20364047     0.14400
H663        H  0.04763548  0.99904461  0.16251026     0.00200
H664        H  0.97067771  0.52375171  0.09649545     0.14700
H665        H  0.47554237  0.00642974  0.12955906     0.14500
C666        C  0.02981185  0.53899318  0.45812608     0.86300
C667        C  0.03052171  0.53544602  0.49274422    -0.53900
C668        C  0.99188781  0.01242635  0.39441598     0.09200
C669        C  0.99418399  0.99260917  0.37256601     0.20200
C670        C  0.05371576  0.53654440  0.44620991    -0.54700
C671        C  0.02283138  0.01051426  0.35801632     0.09300
C672        C  0.46243674  0.00098886  0.32455379    -0.54200
C673        C  0.45907795  0.97777975  0.33703744     0.09900
H674        H  0.03091077  0.54978200  0.50889411     0.14400
H675        H  0.99148561  0.97452322  0.38441889     0.00200
H676        H  0.06883679  0.55078401  0.43060248     0.14700
H677        H  0.44936450  0.00051941  0.30585980     0.14500
O678        O  0.35698419  0.82113290  0.21355610    -0.58000
C679        C  0.29509535  0.84820708  0.23845149     0.74600
O680        O  0.28535462  0.78018974  0.25363643    -0.59200
C681        C  0.36148805  0.80684280  0.23213123     0.74600
C682        C  0.37190177  0.87464360  0.27928550     0.77000
Cd683      Cd  0.32735000  0.82589784  0.24763877     1.37500
O684        O  0.31115898  0.84929760  0.21796890    -0.58000
O685        O  0.36730203  0.87261895  0.25049897    -0.56800
C686        C  0.28019024  0.77643236  0.22474570     0.77000
O687        O  0.35512512  0.85368674  0.29455463    -0.59200
O688        O  0.29433817  0.83651110  0.26344184    -0.57600
O689        O  0.34974402  0.80154059  0.25781538    -0.57600
O690        O  0.29711836  0.79537173  0.20752188    -0.56800
C691        C  0.39552007  0.90039038  0.29409471    -0.06300
C692        C  0.39786444  0.90339583  0.32626975    -0.17400
C693        C  0.41868355  0.92768111  0.34104627     0.10900
C694        C  0.43774185  0.95013959  0.32354822    -0.06200
C695        C  0.43561072  0.94691197  0.29151166    -0.17500
C696        C  0.41558833  0.92261868  0.27684769     0.10900
S697        S  0.41961228  0.93012470  0.38216316    -0.32400
S698        S  0.41761138  0.92157798  0.23589297    -0.32400
H699        H  0.41727001  0.89722526  0.23603856     0.28900
H700        H  0.39701799  0.90393965  0.38744416     0.28900
H701        H  0.38301074  0.88674551  0.33995748     0.19500
H702        H  0.45021781  0.96353606  0.27752694     0.19500
C703        C  0.01762827  0.00052187  0.10763758    -0.06300
C704        C  0.98471362  0.50364887  0.97689967    -0.17400
C705        C  0.04609086  0.52264228  0.55867182     0.10900
C706        C  0.98842493  0.00891259  0.42891797    -0.06200
C707        C  0.44739262  0.98515907  0.43233272    -0.17500
C708        C  0.49703997  0.98858361  0.07837223     0.10900
S709        S  0.07918563  0.55124778  0.54883976    -0.32400
S710        S  0.46257127  0.96277774  0.08781098    -0.32400
H711        H  0.47073322  0.95553153  0.11470339     0.28900
H712        H  0.08076508  0.54080028  0.52057068     0.28900
H713        H  0.00103712  0.51734490  0.99271184     0.19500
H714        H  0.43013000  0.97818100  0.41642541     0.19500
C715        C  0.04720221  0.00693822  0.35911470    -0.06300
C716        C  0.10078307  0.52808369  0.43533783    -0.17400
C717        C  0.11952619  0.52533532  0.41752942     0.10900
C718        C  0.09614830  0.00703623  0.34664335    -0.06200
C719        C  0.06994814  0.98304726  0.34466228    -0.17500
C720        C  0.04560834  0.98263839  0.35097443     0.10900
S721        S  0.15439918  0.55378710  0.41709823    -0.32400
S722        S  0.01287641  0.95136060  0.34648287    -0.32400
H723        H  0.02324874  0.93424006  0.34591916     0.28900
H724        H  0.16609373  0.53778813  0.41825631     0.28900
H725        H  0.10800838  0.54735501  0.44656260     0.19500
H726        H  0.06853671  0.96467305  0.33717413     0.19500
C727        C  0.20785770  0.70665026  0.18236198    -0.06300
C728        C  0.21655791  0.70500256  0.21223614    -0.17400
C729        C  0.24001919  0.72685932  0.22647287     0.10900
C730        C  0.25545926  0.75167883  0.21090284    -0.06200
C731        C  0.24692545  0.75312162  0.18071396    -0.16700
C732        C  0.22361482  0.73100486  0.16633312     0.10900
S733        S  0.24921611  0.72128652  0.26421179    -0.32400
S734        S  0.21563834  0.73484859  0.12728335    -0.32400
H735        H  0.20460275  0.70767078  0.11869320     0.28900
H736        H  0.27714573  0.73289296  0.25767863     0.28900
H737        H  0.20468673  0.68644473  0.22492253     0.19500
H738        H  0.25849803  0.77172433  0.16804225     0.19500
C739        C  0.01525311  0.52585176  0.07784429    -0.06300
C740        C  0.03282430  0.54888211  0.06057810    -0.17400
C741        C  0.05645396  0.57162320  0.07405286     0.10900
C742        C  0.06264486  0.57153980  0.10564445    -0.06200
C743        C  0.04609043  0.54751504  0.12192769    -0.17500
C744        C  0.02282474  0.52490362  0.10850655     0.10900
S745        S  0.07651728  0.60056933  0.05031212    -0.32400
S746        S  0.00167346  0.49544539  0.13149674    -0.32400
H747        H  0.02010873  0.50316141  0.15669130     0.28900
H748        H  0.07859842  0.61939709  0.07196779     0.28900
H749        H  0.02708708  0.54996691  0.03708728     0.19500
H750        H  0.05089881  0.54669720  0.14584273     0.19500
C751        C  0.14867761  0.54609139  0.25404522    -0.06300
C752        C  0.16643611  0.57414295  0.25832568    -0.17400
C753        C  0.16509601  0.59238596  0.23873848     0.10900
C754        C  0.14580313  0.58236530  0.21426487    -0.06200
C755        C  0.12954105  0.55457304  0.20836013    -0.17500
C756        C  0.13062308  0.53614824  0.22801977     0.10900
S757        S  0.18803661  0.62841192  0.24498348    -0.32400
S758        S  0.10887865  0.50036242  0.21917543    -0.32400
H759        H  0.09498540  0.50256840  0.19347872     0.28900
H760        H  0.20144004  0.62681050  0.27151332     0.28900
H761        H  0.18082819  0.58182632  0.27761484     0.19500
H762        H  0.11503758  0.54734741  0.18915090     0.19500
C763        C  0.43009425  0.79868509  0.21998301    -0.06300
C764        C  0.41138560  0.78359496  0.24275034    -0.17400
C765        C  0.38660279  0.78261955  0.24481635     0.10900
C766        C  0.38126225  0.79865879  0.22491346    -0.06200
C767        C  0.39827158  0.81067842  0.19974467    -0.17500
C768        C  0.42228044  0.81033141  0.19674655     0.10900
S769        S  0.36355548  0.76154960  0.27410270    -0.32400
S770        S  0.44397507  0.82842050  0.16526260    -0.32400
H771        H  0.45038775  0.80870227  0.15929078     0.28900
H772        H  0.33961380  0.75348003  0.25627986     0.28900
H773        H  0.41690420  0.77389203  0.26018122     0.19500
H774        H  0.39399986  0.82209528  0.18339794     0.19500
C775        C  0.10358049  0.87941400  0.24626745    -0.06300
C776        C  0.11086816  0.89843816  0.22294794    -0.17400
C777        C  0.13040144  0.92588430  0.22890079     0.10900
C778        C  0.14244687  0.93366018  0.25861097    -0.06200
C779        C  0.14036366  0.91360541  0.27833689    -0.17500
C780        C  0.12117688  0.88641242  0.27213943     0.10900
S781        S  0.13763430  0.95050087  0.19952756    -0.32400
S782        S  0.11654667  0.86202974  0.30053303    -0.32400
H783        H  0.09963236  0.83925332  0.28175820     0.28900
H784        H  0.12325082  0.93177277  0.17558947     0.28900
H785        H  0.09823992  0.89273671  0.20221348     0.19500
H786        H  0.15127700  0.91907647  0.30025867     0.19500
C787        C  0.01834491  0.90977917  0.22569757    -0.06300
C788        C  0.49372829  0.90554027  0.19526675    -0.17400
C789        C  0.49110357  0.92652236  0.18341242     0.10900
C790        C  0.01428575  0.95299455  0.20009341    -0.06200
C791        C  0.02465217  0.95471117  0.23004488    -0.17500
C792        C  0.02713825  0.93376153  0.24269867     0.10900
S793        S  0.46121913  0.91774248  0.15985407    -0.32400
S794        S  0.04294681  0.93944257  0.28006645    -0.32400
H795        H  0.05861959  0.92814741  0.27295048     0.28900
H796        H  0.44650871  0.88969010  0.16503904     0.28900
H797        H  0.47783927  0.88474183  0.19021814     0.19500
H798        H  0.03097063  0.97256023  0.24378290     0.19500
C799        C  0.51285057  0.73245216  0.33128978    -0.06300
C800        C  0.53576108  0.75908927  0.33535012    -0.17400
C801        C  0.53707646  0.78144187  0.32050730     0.10900
C802        C  0.51547173  0.77717059  0.30034613    -0.06200
C803        C  0.98204910  0.75212243  0.32747667    -0.17500
C804        C  0.97934811  0.72902339  0.34140900     0.10900
S805        S  0.56719991  0.81495505  0.32554595    -0.32400
S806        S  0.94497272  0.70000720  0.34462079    -0.32400
H807        H  0.95018258  0.69224746  0.37324363     0.28900
H808        H  0.58069231  0.80802371  0.34753012     0.28900
H809        H  0.55316944  0.76227480  0.34913359     0.19500
H810        H  0.96399684  0.75101066  0.31749912     0.19500
C811        C  0.05510537  0.66221011  0.27915796    -0.06300
C812        C  0.08035410  0.66485793  0.28655674    -0.17400
C813        C  0.09564280  0.66188293  0.26430040     0.10900
C814        C  0.08572126  0.65631892  0.23364115    -0.06200
C815        C  0.06125461  0.65506813  0.22581067    -0.17500
C816        C  0.04561927  0.65761308  0.24823343     0.10900
S817        S  0.12754074  0.66518839  0.27664693    -0.32400
S818        S  0.01373744  0.65490894  0.23685422    -0.32400
H819        H  0.01306825  0.64731016  0.20619905     0.28900
H820        H  0.14140422  0.67682575  0.24942201     0.28900
H821        H  0.08782518  0.66828609  0.31011793     0.19500
H822        H  0.05383053  0.65092327  0.20225952     0.19500
C823        C  0.02871906  0.56434045  0.44868208    -0.06300
C824        C  0.05074401  0.58644386  0.43370815    -0.17400
C825        C  0.04865696  0.60761193  0.42119396     0.10900
C826        C  0.02362524  0.60692259  0.42227781    -0.06200
C827        C  0.50925099  0.59323355  0.43564454    -0.17500
C828        C  0.50895896  0.57164655  0.45109273     0.10900
S829        S  0.07917291  0.63532490  0.40469461    -0.32400
S830        S  0.47891438  0.54839528  0.47244467    -0.32400
H831        H  0.46411651  0.56111160  0.46719498     0.28900
H832        H  0.07424711  0.65531850  0.41460919     0.28900
H833        H  0.07020341  0.58795697  0.43190322     0.19500
H834        H  0.49094642  0.59422810  0.43511680     0.19500
C835        C  0.22921790  0.50049522  0.28098695    -0.06300
C836        C  0.23777385  0.98701968  0.31646142    -0.17400
C837        C  0.25793896  0.98392965  0.30298541     0.10900
C838        C  0.26762928  0.49827296  0.24089834    -0.06200
C839        C  0.26434270  0.52058854  0.24115008    -0.17500
C840        C  0.24582533  0.52204969  0.26069263     0.10900
S841        S  0.24983346  0.95057281  0.29179124    -0.32400
S842        S  0.24430296  0.55207315  0.25790277    -0.32400
H843        H  0.24926447  0.55780804  0.28945620     0.28900
H844        H  0.22333759  0.93600721  0.30384833     0.28900
H845        H  0.21740845  0.96933189  0.31919456     0.19500
H846        H  0.27662279  0.53740894  0.22614397     0.19500
C847        C  0.27767190  0.90850216  0.22679323    -0.06300
C848        C  0.27095028  0.89491335  0.25481246    -0.17400
C849        C  0.27152321  0.87139348  0.25846603     0.10900
C850        C  0.27995885  0.86212181  0.23374081    -0.06200
C851        C  0.27994552  0.87197170  0.20436372    -0.17500
C852        C  0.27808559  0.89475966  0.20055290     0.10900
S853        S  0.26475571  0.85659604  0.29592395    -0.32400
S854        S  0.28088492  0.90764900  0.16247728    -0.32400
H855        H  0.26350827  0.91738200  0.16781519     0.28900
H856        H  0.25076791  0.82982460  0.28458871     0.28900
H857        H  0.26867945  0.90443149  0.27482014     0.19500
H858        H  0.28416544  0.86365719  0.18464285     0.19500
C859        C  0.44960992  0.60043863  0.29419666    -0.06300
C860        C  0.45450638  0.58592741  0.27236346    -0.17400
C861        C  0.43412587  0.56845372  0.25131285     0.10900
C862        C  0.40773952  0.56462438  0.25231206    -0.06200
C863        C  0.40271295  0.57920739  0.27379303    -0.17500
C864        C  0.42333947  0.59719211  0.29454318     0.10900
S865        S  0.44346596  0.55244649  0.22302306    -0.32400
S866        S  0.41493491  0.61587359  0.31992135    -0.32400
H867        H  0.43926701  0.64068999  0.31455848     0.28900
H868        H  0.42701973  0.55335722  0.19923325     0.28900
H869        H  0.47459681  0.58847018  0.27131930     0.19500
H870        H  0.38248151  0.57636438  0.27462843     0.19500
C871        C  0.45919690  0.00156152  0.19104439    -0.06300
C872        C  0.42930435  0.52575065  0.08862410    -0.17400
C873        C  0.40910950  0.52721055  0.10484481     0.10900
C874        C  0.41032477  0.99779856  0.21364254    -0.06200
C875        C  0.40878252  0.97780906  0.19428828    -0.17500
C876        C  0.43239626  0.97947666  0.18277056     0.10900
S877        S  0.41606734  0.56057696  0.11314966    -0.32400
S878        S  0.42731905  0.95316267  0.15673189    -0.32400
H879        H  0.39963447  0.93434858  0.16312354     0.28900
H880        H  0.38903525  0.55366848  0.10599790     0.28900
H881        H  0.44765859  0.54464194  0.08284005     0.19500
H882        H  0.38869238  0.96081205  0.18759004     0.19500
O883        O  0.35792937  0.98056458  0.73787390    -0.58000
C884        C  0.35925200  0.52780745  0.66857174     0.74600
O885        O  0.35346258  0.45773520  0.70502763    -0.59200
C886        C  0.33765512  0.95647347  0.73675218     0.74600
C887        C  0.28363848  0.48267722  0.73714107     0.77000
Cd888      Cd  0.32597497  0.48015132  0.70103620     1.37500
O889        O  0.36138239  0.52611292  0.69726283    -0.58000
O890        O  0.30711546  0.01983740  0.71230712    -0.56800
C891        C  0.36598828  0.00279657  0.65028484     0.77000
O892        O  0.28875172  0.97841881  0.72485454    -0.59200
O893        O  0.33922893  0.50790796  0.65441453    -0.57600
O894        O  0.31655096  0.95193583  0.72147425    -0.57600
O895        O  0.37300826  0.49684280  0.72577125    -0.56800
O896        O  0.00709050  0.66437564  0.72468556    -0.58000
C897        C  0.45238843  0.62028005  0.68547809     0.74600
O898        O  0.48468232  0.63339867  0.77816599    -0.59200
C899        C  0.02005492  0.67868894  0.74823661     0.74600
C900        C  0.48493228  0.70019145  0.70701063     0.77000
Cd901      Cd  0.49468159  0.65740469  0.72549264     1.37500
O902        O  0.47726126  0.62909460  0.67947416    -0.58000
O903        O  0.97292983  0.68801113  0.71079574    -0.56800
C904        C  0.96144170  0.60840696  0.78389756     0.77000
O905        O  0.48068224  0.69177830  0.73459699    -0.59200
O906        O  0.44764903  0.62803408  0.71034437    -0.57600
O907        O  0.00613061  0.68114656  0.76873036    -0.57600
O908        O  0.50232517  0.62166542  0.74344616    -0.56800
O909        O  0.47290100  0.86092340  0.70520523    -0.58000
C910        C  0.03740815  0.88529062  0.69981350     0.74600
O911        O  0.49429485  0.80887358  0.64627312    -0.59200
C912        C  0.44736945  0.84396063  0.70615683     0.74600
C913        C  0.97982493  0.88607158  0.62266804     0.77000
Cd914      Cd  0.48160665  0.84274814  0.66126633     1.37500
O915        O  0.01679714  0.88585458  0.70812744    -0.58000
O916        O  0.49958247  0.88621768  0.63183732    -0.56800
C917        C  0.47461719  0.78901916  0.65988706     0.77000
O918        O  0.45962423  0.85458949  0.61705330    -0.59200
O919        O  0.03392985  0.86953686  0.67782778    -0.57600
O920        O  0.43686799  0.82560138  0.68563872    -0.57600
O921        O  0.45598851  0.79277341  0.66853723    -0.56800
O922        O  0.12248470  0.67485641  0.79411232    -0.58000
C923        C  0.18254448  0.64394855  0.80079712     0.74600
O924        O  0.14281096  0.64411673  0.72425385    -0.59200
C925        C  0.12187712  0.68793095  0.77093512     0.74600
C926        C  0.20730106  0.71924704  0.79723051     0.77000
Cd927      Cd  0.15864536  0.67016079  0.77453263     1.37500
O928        O  0.16306895  0.64399488  0.81434686    -0.58000
O929        O  0.18670057  0.70476308  0.81390508    -0.56800
C930        C  0.12284698  0.62264545  0.73583787     0.77000
O931        O  0.20431163  0.71214447  0.76905125    -0.59200
O932        O  0.19054342  0.65669457  0.77571685    -0.57600
O933        O  0.13969497  0.69400577  0.75059142    -0.57600
O934        O  0.12022429  0.62312353  0.76456642    -0.56800
O935        O  0.12516557  0.98558679  0.78059571    -0.58000
C936        C  0.17762536  0.54975260  0.80408484     0.74600
O937        O  0.10397133  0.49997284  0.78571521    -0.59200
C938        C  0.12143565  0.96218418  0.77997827     0.74600
C939        C  0.19386224  0.49164322  0.78420947     0.77000
Cd940      Cd  0.14483361  0.49502663  0.78920365     1.37500
O941        O  0.16847701  0.54154938  0.77691310    -0.58000
O942        O  0.18832563  0.50604394  0.76737101    -0.56800
C943        C  0.12628681  0.99963426  0.87840319     0.77000
O944        O  0.17693530  0.47871695  0.80558363    -0.59200
O945        O  0.17201806  0.53210283  0.82458045    -0.57600
O946        O  0.13329134  0.95677047  0.80116919    -0.57600
O947        O  0.10526187  0.48060345  0.82699382    -0.56800
C948        C  0.44301701  0.99385720  0.57009134     0.86300
C949        C  0.44189511  0.96750452  0.57893505    -0.53900
C950        C  0.97086776  0.97410347  0.57163223     0.09200
C951        C  0.99114737  0.99904932  0.55230797     0.20200
C952        C  0.00773208  0.51967876  0.69042327    -0.54700
C953        C  0.03191728  0.52285926  0.68135969     0.09300
C954        C  0.44198884  0.99374004  0.53471437    -0.54200
C955        C  0.97271332  0.00168574  0.52772375     0.09900
H956        H  0.42829452  0.95410078  0.59632718     0.14400
H957        H  0.00797592  0.99756983  0.54250735     0.00200
H958        H  0.00813944  0.53547224  0.70361625     0.14700
H959        H  0.42787827  0.99751085  0.52208845     0.14500
C960        C  0.97129295  0.52118970  0.84348091     0.86300
C961        C  0.96962080  0.51824904  0.87853674    -0.53900
C962        C  0.03560447  0.01688564  0.00976638     0.09200
C963        C  0.03086364  0.99762955  0.98202270     0.20200
C964        C  0.99765313  0.52108234  0.83611725    -0.54700
C965        C  0.05530570  0.01454489  0.96005636     0.09300
C966        C  0.50608643  0.01149593  0.94634337    -0.54200
C967        C  0.50310942  0.98784202  0.95689613     0.09900
H968        H  0.96792591  0.53223117  0.89328315     0.14400
H969        H  0.02953822  0.97866811  0.98859728     0.00200
H970        H  0.01460145  0.53663545  0.82344132     0.14700
H971        H  0.49054358  0.01169997  0.93188500     0.14500
O972        O  0.39013709  0.87007220  0.81360498    -0.58000
C973        C  0.35121850  0.88841773  0.82054513     0.74600
O974        O  0.31275743  0.82619339  0.86790917    -0.59200
C975        C  0.39257946  0.84986718  0.81113206     0.74600
C976        C  0.40452015  0.89057253  0.90676328     0.77000
Cd977      Cd  0.36385435  0.85655839  0.85900592     1.37500
O978        O  0.37326560  0.88856035  0.81949015    -0.58000
O979        O  0.38587590  0.89431363  0.89706436    -0.56800
C980        C  0.31044328  0.80594195  0.85403555     0.77000
O981        O  0.40116122  0.86786134  0.89994829    -0.59200
O982        O  0.33520495  0.87475227  0.84183867    -0.57600
O983        O  0.38315223  0.83276590  0.83257074    -0.57600
O984        O  0.33281470  0.80766615  0.84828938    -0.56800
C985        C  0.43087643  0.91358837  0.92002546    -0.06300
C986        C  0.43997231  0.91367723  0.95019025    -0.17400
C987        C  0.46407951  0.93676272  0.96286330     0.10900
C988        C  0.47908474  0.96069842  0.94522785    -0.06200
C989        C  0.47058976  0.95934153  0.91442751    -0.17500
C990        C  0.44729952  0.93639637  0.90179611     0.10900
S991        S  0.47482781  0.93500806  0.00136346    -0.32400
S992        S  0.43978604  0.93737314  0.86165061    -0.32400
H993        H  0.43050972  0.91009706  0.85553129     0.28900
H994        H  0.45447841  0.90781473  0.00668795     0.28900
H995        H  0.42790274  0.89587026  0.96392537     0.19500
H996        H  0.48248318  0.97640298  0.89958481     0.19500
C997        C  0.97770098  0.00304638  0.49362134    -0.06300
C998        C  0.04006559  0.51842202  0.59025807    -0.17400
C999        C  0.98900915  0.50762950  0.94516153     0.10900
C1000       C  0.03055439  0.00886473  0.04322469    -0.06200
C1001       C  0.50280873  0.99185720  0.04689775    -0.17500
C1002       C  0.44235632  0.98083903  0.46407103     0.10900
S1003       S  0.02182800  0.53548222  0.93341582    -0.32400
S1004       S  0.40686214  0.96043104  0.47456909    -0.32400
H1005       H  0.41176865  0.94771761  0.49911872     0.28900
H1006       H  0.02238115  0.52352028  0.90583036     0.28900
H1007       H  0.05533069  0.53235219  0.60687051     0.19500
H1008       H  0.48597377  0.98122086  0.03050543     0.19500
C1009       C  0.07188970  0.00531000  0.94328859    -0.06300
C1010       C  0.03377941  0.48611015  0.85835065    -0.17400
C1011       C  0.05681271  0.48425220  0.85117705     0.10900
C1012       C  0.10816853  0.99975014  0.90333671    -0.06200
C1013       C  0.07984214  0.98770447  0.89634254    -0.17500
C1014       C  0.06195959  0.99045517  0.91552430     0.10900
S1015       S  0.07167189  0.47491122  0.88165140    -0.32400
S1016       S  0.02682888  0.97675135  0.90283657    -0.32400
H1017       H  0.02802489  0.96543937  0.87501482     0.28900
H1018       H  0.09841237  0.49724728  0.87738858     0.28900
H1019       H  0.02639389  0.48208514  0.88149841     0.19500
H1020       H  0.07172032  0.97695847  0.87481126     0.19500
C1021       C  0.23369082  0.74247875  0.81089071    -0.06300
C1022       C  0.23350858  0.75284018  0.84001470    -0.17400
C1023       C  0.25792106  0.77283736  0.85526490     0.10900
C1024       C  0.28360892  0.78279807  0.84160481    -0.06200
C1025       C  0.28377073  0.77229513  0.81274355    -0.16700
C1026       C  0.25949405  0.75295146  0.79717287     0.10900
S1027       S  0.25493269  0.78406360  0.89246726    -0.32400
S1028       S  0.26325217  0.74235732  0.75998914    -0.32400
H1029       H  0.24688662  0.75071742  0.74534552     0.28900
H1030       H  0.27955827  0.78756725  0.90459643     0.28900
H1031       H  0.21415523  0.74511238  0.85126267     0.19500
H1032       H  0.30310356  0.78001188  0.80146880     0.19500
C1033       C  0.05874958  0.54873423  0.69000095    -0.06300
C1034       C  0.06005790  0.57346885  0.68614351    -0.17400
C1035       C  0.08107429  0.59786083  0.69971467     0.10900
C1036       C  0.10244975  0.59836367  0.71713167    -0.06200
C1037       C  0.10230719  0.57413760  0.71943883    -0.17500
C1038       C  0.08094113  0.54955655  0.70612254     0.10900
S1039       S  0.07814088  0.62710523  0.69507694    -0.32400
S1040       S  0.08264856  0.51989538  0.71197364    -0.32400
H1041       H  0.05506917  0.50356281  0.71978347     0.28900
H1042       H  0.09387575  0.64201682  0.72084485     0.28900
H1043       H  0.04354833  0.57354082  0.67365381     0.19500
H1044       H  0.11846670  0.57411732  0.73276814     0.19500
C1045       C  0.19152682  0.57858010  0.81167911    -0.06300
C1046       C  0.18227508  0.58600138  0.83694162    -0.17400
C1047       C  0.18345981  0.61057318  0.83711123     0.10900
C1048       C  0.19354484  0.62731041  0.81121940    -0.06200
C1049       C  0.20872801  0.62267705  0.79009078    -0.17500
C1050       C  0.20757166  0.59815946  0.78991876     0.10900
S1051       S  0.16969152  0.61817407  0.86940079    -0.32400
S1052       S  0.22381688  0.59080424  0.75991556    -0.32400
H1053       H  0.23819219  0.61694087  0.74747206     0.28900
H1054       H  0.18651925  0.64643302  0.86619085     0.28900
H1055       H  0.17122526  0.57146795  0.85473195     0.19500
H1056       H  0.21838644  0.63645918  0.77131902     0.19500
C1057       C  0.43132738  0.84544077  0.73084754    -0.06300
C1058       C  0.41043631  0.82138970  0.74380765    -0.17400
C1059       C  0.39721370  0.82199779  0.76999501     0.10900
C1060       C  0.40570330  0.84714629  0.78408326    -0.06200
C1061       C  0.42603653  0.87111390  0.77048216    -0.17500
C1062       C  0.43845945  0.87057896  0.74382440     0.10900
S1063       S  0.36899401  0.79029197  0.78334185    -0.32400
S1064       S  0.46255297  0.90275568  0.72701032    -0.32400
H1065       H  0.45508030  0.89350476  0.69655112     0.28900
H1066       H  0.35203548  0.80050109  0.78857171     0.28900
H1067       H  0.40459748  0.80203047  0.73371165     0.19500
H1068       H  0.43209194  0.89057844  0.78047609     0.19500
C1069       C  0.06397766  0.90317035  0.71511098    -0.06300
C1070       C  0.07723793  0.93062948  0.70809861    -0.17400
C1071       C  0.09718006  0.95037009  0.72799459     0.10900
C1072       C  0.10373088  0.94229119  0.75592967    -0.06200
C1073       C  0.09198552  0.91455960  0.76155893    -0.17500
C1074       C  0.07217080  0.89493491  0.74140785     0.10900
S1075       S  0.11345961  0.98556228  0.71722741    -0.32400
S1076       S  0.05623688  0.85986164  0.75180710    -0.32400
H1077       H  0.04923580  0.84946304  0.72178070     0.28900
H1078       H  0.09773185  0.98158549  0.69035603     0.28900
H1079       H  0.07066119  0.93661139  0.68778501     0.19500
H1080       H  0.09718763  0.90808219  0.78250393     0.19500
C1081       C  0.97897809  0.90729358  0.60352135    -0.06300
C1082       C  0.44803230  0.89393050  0.59078229    -0.17400
C1083       C  0.44294898  0.91361111  0.57895753     0.10900
C1084       C  0.97349311  0.95000417  0.57863521    -0.06200
C1085       C  0.99945130  0.95412589  0.58582858    -0.17500
C1086       C  0.00247862  0.93344343  0.59831446     0.10900
S1087       S  0.40807920  0.90346555  0.56859543    -0.32400
S1088       S  0.03681804  0.94272502  0.60945696    -0.32400
H1089       H  0.03532663  0.92140272  0.59266465     0.28900
H1090       H  0.39520743  0.87673173  0.57918734     0.28900
H1091       H  0.43083796  0.87379691  0.59533829     0.19500
H1092       H  0.01762546  0.97401121  0.58299720     0.19500
C1093       C  0.48024830  0.72164899  0.69447224    -0.06300
C1094       C  0.49372152  0.73509613  0.66752347    -0.17400
C1095       C  0.49093415  0.75569482  0.65444441     0.10900
C1096       C  0.47456275  0.76393760  0.66859109    -0.06200
C1097       C  0.94865198  0.75556736  0.70830584    -0.17500
C1098       C  0.94651980  0.73268252  0.72234726     0.10900
S1099       S  0.50859196  0.77029559  0.61945277    -0.32400
S1100       S  0.92004655  0.71509239  0.74981233    -0.32400
H1101       H  0.93881754  0.71885741  0.77350517     0.28900
H1102       H  0.48762525  0.77319714  0.60646805     0.28900
H1103       H  0.50682991  0.72964810  0.65642583     0.19500
H1104       H  0.93492485  0.76191103  0.71534762     0.19500
C1105       C  0.04955518  0.68948405  0.75334023    -0.06300
C1106       C  0.05902683  0.69145606  0.78367008    -0.17400
C1107       C  0.08392144  0.69349279  0.79038552     0.10900
C1108       C  0.09992775  0.69374570  0.76622752    -0.06200
C1109       C  0.09220590  0.69555729  0.73595694    -0.17500
C1110       C  0.06712578  0.69339751  0.72921703     0.10900
S1111       S  0.09329090  0.69444178  0.83018664    -0.32400
S1112       S  0.05760000  0.69503919  0.68990920    -0.32400
H1113       H  0.08080284  0.69742044  0.67649490     0.28900
H1114       H  0.12168989  0.71164189  0.82584153     0.28900
H1115       H  0.04605606  0.68933887  0.80243377     0.19500
H1116       H  0.10486779  0.69670040  0.71735815     0.19500
C1117       C  0.96921041  0.54559288  0.83102940    -0.06300
C1118       C  0.99150369  0.56784770  0.81637807    -0.17400
C1119       C  0.98965573  0.58887758  0.80294910     0.10900
C1120       C  0.96479687  0.58849211  0.80291862    -0.06200
C1121       C  0.47361996  0.58081668  0.80951969    -0.17500
C1122       C  0.47294859  0.55894528  0.82504185     0.10900
S1123       S  0.02052525  0.61651583  0.78690409    -0.32400
S1124       S  0.44291106  0.53620376  0.84665824    -0.32400
H1125       H  0.42881844  0.54969723  0.84198002     0.28900
H1126       H  0.01512253  0.63647262  0.79543005     0.28900
H1127       H  0.01122099  0.56989232  0.81552120     0.19500
H1128       H  0.45614061  0.58314352  0.81034207     0.19500
C1129       C  0.21865303  0.48998678  0.77767259    -0.06300
C1130       C  0.22257067  0.97883519  0.77079344    -0.17400
C1131       C  0.23999901  0.97691032  0.75009229     0.10900
C1132       C  0.26147343  0.48433723  0.75305061    -0.06200
C1133       C  0.26377351  0.50958450  0.75441787    -0.17500
C1134       C  0.24318098  0.51269710  0.76678798     0.10900
S1135       S  0.22823898  0.94389091  0.73424018    -0.32400
S1136       S  0.24979421  0.54657636  0.76827783    -0.32400
H1137       H  0.23504248  0.54277217  0.79500621     0.28900
H1138       H  0.23844145  0.95349685  0.70495269     0.28900
H1139       H  0.20340940  0.96056778  0.77643150     0.19500
H1140       H  0.28196529  0.52729254  0.74570967     0.19500
C1141       C  0.33878640  0.93537587  0.75373272    -0.06300
C1142       C  0.31736812  0.91878903  0.77328993    -0.17400
C1143       C  0.32016546  0.90247242  0.79478780     0.10900
C1144       C  0.34531143  0.90339265  0.79737084    -0.06200
C1145       C  0.36599295  0.91895681  0.77636223    -0.17500
C1146       C  0.36281382  0.93447186  0.75439559     0.10900
S1147       S  0.29107252  0.88139291  0.81812300    -0.32400
S1148       S  0.39019571  0.95268230  0.72780839    -0.32400
H1149       H  0.37323051  0.95192855  0.70354554     0.28900
H1150       H  0.29096741  0.85771673  0.81138423     0.28900
H1151       H  0.29874927  0.91929431  0.77259370     0.19500
H1152       H  0.38504335  0.91925935  0.77696724     0.19500
C1153       C  0.42955184  0.60047669  0.66576319    -0.06300
C1154       C  0.43027970  0.57822093  0.65516865    -0.17400
C1155       C  0.40581113  0.55377455  0.64868975     0.10900
C1156       C  0.38056813  0.55181799  0.65334316    -0.06200
C1157       C  0.38022316  0.57539094  0.65766022    -0.17500
C1158       C  0.40466507  0.59992424  0.66382304     0.10900
S1159       S  0.40778525  0.52451607  0.64072478    -0.32400
S1160       S  0.40253230  0.62899679  0.67252727    -0.32400
H1161       H  0.42998343  0.64833424  0.66568275     0.28900
H1162       H  0.38140912  0.50962440  0.62702472     0.28900
H1163       H  0.44946166  0.57876047  0.65568072     0.19500
H1164       H  0.36082129  0.57402863  0.66055732     0.19500
C1165       C  0.42087744  0.99755879  0.58616937    -0.06300
C1166       C  0.45319497  0.50514709  0.71780372    -0.17400
C1167       C  0.42782062  0.50156291  0.72628126     0.10900
C1168       C  0.38349106  0.00268752  0.62486713    -0.06200
C1169       C  0.37466909  0.97906533  0.60730154    -0.17500
C1170       C  0.39262762  0.97656002  0.58758595     0.10900
S1171       S  0.42803341  0.52532170  0.75297760    -0.32400
S1172       S  0.37896093  0.94645982  0.56412266    -0.32400
H1173       H  0.35155827  0.93383714  0.57327043     0.28900
H1174       H  0.45662600  0.54154437  0.75806108     0.28900
H1175       H  0.47140600  0.52230017  0.72753707     0.19500
H1176       H  0.35383094  0.96212644  0.60975473     0.19500
O1177       O  0.84691530  0.47846088  0.24210094    -0.58000
C1178       C  0.86112803  0.04018477  0.17934702     0.74600
O1179       O  0.86208249  0.97875531  0.20844623    -0.59200
C1180       C  0.82647962  0.45443645  0.24093489     0.74600
C1181       C  0.79905648  0.00549518  0.26238679     0.77000
Cd1182     Cd  0.83363119  0.99754595  0.22066538     1.37500
O1183       O  0.86344933  0.04384504  0.20806132    -0.58000
O1184       O  0.80205775  0.51767027  0.21621881    -0.56800
C1185       C  0.85723153  0.49609147  0.14632050     0.77000
O1186       O  0.78171488  0.47501874  0.22138276    -0.59200
O1187       O  0.84203242  0.01733627  0.16911062    -0.57600
O1188       O  0.80798880  0.44906129  0.22074766    -0.57600
O1189       O  0.88192857  0.01165991  0.24042787    -0.56800
O1190       O  0.53858006  0.17124127  0.19132532    -0.58000
C1191       C  0.96292073  0.12283740  0.18054993     0.74600
O1192       O  0.00176265  0.14052842  0.27072600    -0.59200
C1193       C  0.55615683  0.18877478  0.21019723     0.74600
C1194       C  0.00191418  0.20394538  0.20193407     0.77000
Cd1195     Cd  0.01053713  0.15936332  0.21583616     1.37500
O1196       O  0.98617181  0.12836532  0.17137317    -0.58000
O1197       O  0.49815118  0.19549069  0.18841725    -0.56800
C1198       C  0.49574306  0.12015100  0.26560403     0.77000
O1199       O  0.99845415  0.19433576  0.22885965    -0.59200
O1200       O  0.96250912  0.13309023  0.20581519    -0.57600
O1201       O  0.54664000  0.19364608  0.23351676    -0.57600
O1202       O  0.01273800  0.12102554  0.23751404    -0.56800
O1203       O  0.96700474  0.35837559  0.19883647    -0.58000
C1204       C  0.53696244  0.38030725  0.20623537     0.74600
O1205       O  0.00003726  0.30970404  0.14658568    -0.59200
C1206       C  0.94238493  0.33862834  0.19810850     0.74600
C1207       C  0.49285369  0.39186881  0.11677619     0.77000
Cd1208     Cd  0.98350896  0.34069612  0.16188206     1.37500
O1209       O  0.51337769  0.37532925  0.21261603    -0.58000
O1210       O  0.00099263  0.38210640  0.12915009    -0.56800
C1211       C  0.98292531  0.28955540  0.16218222     0.77000
O1212       O  0.96047110  0.34984264  0.11689860    -0.59200
O1213       O  0.54031568  0.37522588  0.17903886    -0.57600
O1214       O  0.93634487  0.31884631  0.18051972    -0.57600
O1215       O  0.96404650  0.29170516  0.17340394    -0.56800
O1216       O  0.65351440  0.19252937  0.25389040    -0.58000
C1217       C  0.71348611  0.15438614  0.22975055     0.74600
O1218       O  0.65289156  0.14081123  0.21295883    -0.59200
C1219       C  0.65812295  0.20361483  0.22787053     0.74600
C1220       C  0.72041797  0.21326898  0.29647633     0.77000
Cd1221     Cd  0.68332141  0.17609922  0.24922644     1.37500
O1222       O  0.70697553  0.15365848  0.25741596    -0.58000
O1223       O  0.69898339  0.19092552  0.30380492    -0.56800
C1224       C  0.63509335  0.12373909  0.23076855     0.77000
O1225       O  0.72414184  0.21813022  0.26809438    -0.59200
O1226       O  0.71054742  0.16985538  0.21154268    -0.57600
O1227       O  0.67681196  0.20424028  0.21209204    -0.57600
O1228       O  0.63944903  0.13027916  0.25918849    -0.56800
O1229       O  0.61894698  0.47168882  0.28960722    -0.58000
C1230       C  0.68243893  0.05443845  0.25264382     0.74600
O1231       O  0.62941311  0.00796766  0.33402619    -0.59200
C1232       C  0.61547683  0.44875492  0.29503860     0.74600
C1233       C  0.70855556  0.01088002  0.30648059     0.77000
Cd1234     Cd  0.65689960  0.00636670  0.28813631     1.37500
O1235       O  0.66613493  0.03164669  0.24010236    -0.58000
O1236       O  0.70670676  0.03118094  0.30095004    -0.56800
C1237       C  0.62588536  0.49783773  0.38750112     0.77000
O1238       O  0.68575530  0.98883140  0.31005614    -0.59200
O1239       O  0.68550860  0.05476911  0.28146843    -0.57600
O1240       O  0.62742650  0.44658764  0.31869412    -0.57600
O1241       O  0.60868082  0.99611168  0.29058899    -0.56800
C1242       C  0.93621622  0.48475737  0.07143968     0.86300
C1243       C  0.93708809  0.45956153  0.08126105    -0.53900
C1244       C  0.47461981  0.47467031  0.06555542     0.09200
C1245       C  0.49359331  0.49959522  0.04547494     0.20200
C1246       C  0.51352383  0.02634011  0.19313722    -0.54700
C1247       C  0.53605261  0.02622807  0.18424523     0.09300
C1248       C  0.93503697  0.48361895  0.03605338    -0.54200
C1249       C  0.47414175  0.49920281  0.01962451     0.09900
H1250       H  0.92387728  0.44589318  0.09870714     0.14400
H1251       H  0.51155387  0.49950069  0.03677657     0.00200
H1252       H  0.51615611  0.04197982  0.20866065     0.14700
H1253       H  0.91975473  0.48512906  0.02261993     0.14500
C1254       C  0.48630585  0.02781653  0.33809006     0.86300
C1255       C  0.48141491  0.02551788  0.37304917    -0.53900
C1256       C  0.52562216  0.51435680  0.50561843     0.09200
C1257       C  0.52413996  0.49580381  0.47869207     0.20200
C1258       C  0.51180051  0.02531684  0.33587084    -0.54700
C1259       C  0.55094002  0.51367763  0.46015339     0.09300
C1260       C  0.00423350  0.51277956  0.44626559    -0.54200
C1261       C  0.00249082  0.48909698  0.45384437     0.09900
H1262       H  0.48129085  0.04109741  0.38642144     0.14400
H1263       H  0.52121655  0.47650718  0.48701603     0.00200
H1264       H  0.53107874  0.04065332  0.32620948     0.14700
H1265       H  0.98897720  0.51317282  0.43145269     0.14500
O1266       O  0.87667784  0.36425625  0.29643655    -0.58000
C1267       C  0.83994032  0.38550467  0.32258310     0.74600
O1268       O  0.83766346  0.30654155  0.35194731    -0.59200
C1269       C  0.88512711  0.34813999  0.29628018     0.74600
C1270       C  0.91098918  0.39553218  0.38786922     0.77000
Cd1271     Cd  0.86289560  0.35667751  0.34917895     1.37500
O1272       O  0.83826224  0.36521286  0.31002420    -0.58000
O1273       O  0.91126641  0.39258266  0.35935578    -0.56800
C1274       C  0.81435800  0.30292958  0.35723576     0.77000
O1275       O  0.88861158  0.37839020  0.40043604    -0.59200
O1276       O  0.85103108  0.39169353  0.34908634    -0.57600
O1277       O  0.88466410  0.33695660  0.32140277    -0.57600
O1278       O  0.81466414  0.32399624  0.36528630    -0.56800
C1279       C  0.93537586  0.41858281  0.40468413    -0.06300
C1280       C  0.94188801  0.41580662  0.43520516    -0.17400
C1281       C  0.96461007  0.43748184  0.45153352     0.10900
C1282       C  0.98086500  0.46307566  0.43753543    -0.06200
C1283       C  0.97516957  0.46497204  0.40641893    -0.17500
C1284       C  0.95276466  0.44371576  0.39030273     0.10900
S1285       S  0.97234569  0.43182270  0.48988268    -0.32400
S1286       S  0.94660333  0.45112708  0.35193296    -0.32400
H1287       H  0.91833543  0.44005044  0.35587189     0.28900
H1288       H  0.95377983  0.40363095  0.48999114     0.28900
H1289       H  0.92914992  0.39653943  0.44624578     0.19500
H1290       H  0.98790225  0.48379853  0.39449053     0.19500
C1291       C  0.47858325  0.49844674  0.98547855    -0.06300
C1292       C  0.54460886  0.02205127  0.09014240    -0.17400
C1293       C  0.49606575  0.00657560  0.44233279     0.10900
C1294       C  0.52368906  0.50802117  0.53976166    -0.06200
C1295       C  0.00084445  0.48446279  0.54641419    -0.17500
C1296       C  0.93861632  0.46543831  0.96715221     0.10900
S1297       S  0.53116821  0.02285624  0.43098166    -0.32400
S1298       S  0.90593252  0.43734603  0.97894892    -0.32400
H1299       H  0.91586397  0.43254064  0.00640193     0.28900
H1300       H  0.52873988  0.03804197  0.40750738     0.28900
H1301       H  0.56103503  0.03453726  0.10648275     0.19500
H1302       H  0.98472060  0.47219078  0.52986971     0.19500
C1303       C  0.57144897  0.50650486  0.44872424    -0.06300
C1304       C  0.55822117  0.01584730  0.36024706    -0.17400
C1305       C  0.58249679  0.01640536  0.35351388     0.10900
C1306       C  0.60957257  0.50032414  0.41281957    -0.06200
C1307       C  0.58270088  0.47838727  0.41809088    -0.17500
C1308       C  0.56400872  0.48086418  0.43634423     0.10900
S1309       S  0.61363376  0.04129577  0.37337846    -0.32400
S1310       S  0.53112794  0.45077431  0.44323771    -0.32400
H1311       H  0.53247407  0.43396014  0.42128159     0.28900
H1312       H  0.62911860  0.05084005  0.34674897     0.28900
H1313       H  0.55968272  0.03087223  0.37593436     0.19500
H1314       H  0.57603159  0.45913570  0.40720700     0.19500
C1315       C  0.74093089  0.23284608  0.31935563    -0.06300
C1316       C  0.76405425  0.23135928  0.32653188    -0.17400
C1317       C  0.78723028  0.25254700  0.34212656     0.10900
C1318       C  0.78798298  0.27653578  0.35021864    -0.06200
C1319       C  0.76380726  0.27691728  0.34515133    -0.16700
C1320       C  0.74047996  0.25550037  0.32994964     0.10900
S1321       S  0.81548932  0.24795716  0.34974638    -0.32400
S1322       S  0.71170794  0.25941110  0.32255042    -0.32400
H1323       H  0.69165624  0.23172316  0.31920913     0.28900
H1324       H  0.82285545  0.26177157  0.37805434     0.28900
H1325       H  0.76455721  0.21398118  0.31874133     0.19500
H1326       H  0.76361622  0.29484996  0.35114783     0.19500
C1327       C  0.56403109  0.04807842  0.19558333    -0.06300
C1328       C  0.57956201  0.06975818  0.17602889    -0.17400
C1329       C  0.60205811  0.09448575  0.18693861     0.10900
C1330       C  0.61072310  0.09774039  0.21827867    -0.06200
C1331       C  0.59586769  0.07549143  0.23761087    -0.17500
C1332       C  0.57255285  0.05104654  0.22690396     0.10900
S1333       S  0.61674381  0.12177419  0.15992809    -0.32400
S1334       S  0.55453685  0.02503470  0.25505038    -0.32400
H1335       H  0.53386005  0.00495031  0.23606478     0.28900
H1336       H  0.61540074  0.14000980  0.17975410     0.28900
H1337       H  0.57268752  0.06821424  0.15239636     0.19500
H1338       H  0.60210753  0.07729319  0.26150239     0.19500
C1339       C  0.69721400  0.07979930  0.23530455    -0.06300
C1340       C  0.72307426  0.10027045  0.24684230    -0.17400
C1341       C  0.73404717  0.12715206  0.23849772     0.10900
C1342       C  0.71848547  0.13361489  0.21913714    -0.06200
C1343       C  0.69629787  0.11274199  0.20212669    -0.17500
C1344       C  0.68480536  0.08563899  0.21070332     0.10900
S1345       S  0.76514461  0.15301463  0.25763306    -0.32400
S1346       S  0.65222296  0.05984781  0.19369664    -0.32400
H1347       H  0.64999733  0.07639537  0.17180537     0.28900
H1348       H  0.76865652  0.17421187  0.23877481     0.28900
H1349       H  0.73355264  0.09571145  0.26451643     0.19500
H1350       H  0.68478219  0.11782298  0.18651954     0.19500
C1351       C  0.92243319  0.33873796  0.21810671    -0.06300
C1352       C  0.90753721  0.31667725  0.23740135    -0.17400
C1353       C  0.89372192  0.31856737  0.26217067     0.10900
C1354       C  0.89550840  0.34329756  0.26816770    -0.06200
C1355       C  0.90833278  0.36444299  0.24711023    -0.17500
C1356       C  0.92153937  0.36228554  0.22195575     0.10900
S1357       S  0.87423632  0.28880405  0.28508779    -0.32400
S1358       S  0.93738098  0.39038687  0.19591689    -0.32400
H1359       H  0.93512045  0.37492483  0.17008067     0.28900
H1360       H  0.85264804  0.29306278  0.29002121     0.28900
H1361       H  0.90774514  0.29835340  0.23405249     0.19500
H1362       H  0.90892228  0.38314181  0.25079323     0.19500
C1363       C  0.55937307  0.39239505  0.22946840    -0.06300
C1364       C  0.58565378  0.41261556  0.22052727    -0.17400
C1365       C  0.60555113  0.42960292  0.24241539     0.10900
C1366       C  0.59882928  0.42640568  0.27355602    -0.06200
C1367       C  0.57383961  0.40419709  0.28278531    -0.17500
C1368       C  0.55418536  0.38676148  0.26097026     0.10900
S1369       S  0.63917089  0.45617711  0.23058057    -0.32400
S1370       S  0.52272729  0.35809863  0.27462305    -0.32400
H1371       H  0.51812234  0.34136534  0.24914974     0.28900
H1372       H  0.63512067  0.44940087  0.19925758     0.28900
H1373       H  0.58993159  0.41634932  0.19643556     0.19500
H1374       H  0.56902300  0.40130594  0.30683371     0.19500
C1375       C  0.49018591  0.41233223  0.09803169    -0.06300
C1376       C  0.94700294  0.38776313  0.09113305    -0.17400
C1377       C  0.94084389  0.40703207  0.08052794     0.10900
C1378       C  0.47989456  0.45241239  0.07406008    -0.06200
C1379       C  0.50663490  0.45912098  0.08254502    -0.17500
C1380       C  0.51200500  0.43962439  0.09417779     0.10900
S1381       S  0.90547272  0.39577503  0.07139921    -0.32400
S1382       S  0.54728750  0.45099498  0.10340232    -0.32400
H1383       H  0.54497831  0.42679369  0.09389811     0.28900
H1384       H  0.89365109  0.36891055  0.08122739     0.28900
H1385       H  0.93034011  0.36741900  0.09596241     0.19500
H1386       H  0.52353399  0.47993381  0.08087510     0.19500
C1387       C  0.99624939  0.22546984  0.19215691    -0.06300
C1388       C  0.00881777  0.24049197  0.16567551    -0.17400
C1389       C  0.00380530  0.26021061  0.15427293     0.10900
C1390       C  0.98583102  0.26580500  0.16957521    -0.06200
C1391       C  0.49251851  0.27397868  0.21072546    -0.17500
C1392       C  0.49506541  0.25238117  0.22078692     0.10900
S1393       S  0.02063419  0.27699406  0.11964984    -0.32400
S1394       S  0.50375433  0.25243049  0.26061357    -0.32400
H1395       H  0.52520417  0.24818036  0.25473497     0.28900
H1396       H  0.99754795  0.27637391  0.10690266     0.28900
H1397       H  0.02277396  0.23682265  0.15349347     0.19500
H1398       H  0.49539236  0.28904028  0.22740821     0.19500
C1399       C  0.58632984  0.20156813  0.20715958    -0.06300
C1400       C  0.60349232  0.21867735  0.23114591    -0.17400
C1401       C  0.63010351  0.22410177  0.23560842     0.10900
C1402       C  0.63982069  0.21218536  0.21584986    -0.06200
C1403       C  0.62496094  0.19968497  0.18872750    -0.17500
C1404       C  0.59815258  0.19419296  0.18404290     0.10900
S1405       S  0.64969724  0.24384350  0.26876309    -0.32400
S1406       S  0.57901138  0.17597610  0.14984330    -0.32400
H1407       H  0.60044866  0.17543018  0.13563257     0.28900
H1408       H  0.67535494  0.25009221  0.25813820     0.28900
H1409       H  0.59548220  0.22602643  0.24813168     0.19500
H1410       H  0.63292325  0.19122810  0.17313186     0.19500
C1411       C  0.48914203  0.05313860  0.32106303    -0.06300
C1412       C  0.50751098  0.06481644  0.29658850    -0.17400
C1413       C  0.51098941  0.08710567  0.27988726     0.10900
C1414       C  0.49495554  0.09846740  0.28592510    -0.06200
C1415       C  0.98345307  0.08685414  0.30619334    -0.17500
C1416       C  0.98125696  0.06576436  0.32493696     0.10900
S1417       S  0.53673609  0.10005850  0.25095150    -0.32400
S1418       S  0.94994738  0.04496978  0.34544334    -0.32400
H1419       H  0.93482929  0.05520898  0.33192180     0.28900
H1420       H  0.54641593  0.12743417  0.25710405     0.28900
H1421       H  0.51909493  0.05621840  0.28914404     0.19500
H1422       H  0.96647656  0.08994343  0.30431074     0.19500
C1423       C  0.73536602  0.01204780  0.30453338    -0.06300
C1424       C  0.72189541  0.47532674  0.28221400    -0.17400
C1425       C  0.73879896  0.47316822  0.26092868     0.10900
C1426       C  0.77951834  0.00819892  0.28178984    -0.06200
C1427       C  0.78082733  0.03294289  0.28196618    -0.17500
C1428       C  0.75975372  0.03538803  0.29410711     0.10900
S1429       S  0.73116990  0.43951177  0.25303664    -0.32400
S1430       S  0.76505917  0.06877908  0.29414035    -0.32400
H1431       H  0.75351753  0.06588950  0.32299950     0.28900
H1432       H  0.73041699  0.44235336  0.22112518     0.28900
H1433       H  0.70512442  0.45692916  0.29179398     0.19500
H1434       H  0.79822194  0.05049380  0.27183864     0.19500
C1435       C  0.82479798  0.43475757  0.26328858    -0.06300
C1436       C  0.83743146  0.44494052  0.29211157    -0.17400
C1437       C  0.84029667  0.42872362  0.31342923     0.10900
C1438       C  0.83103667  0.40164100  0.30552626    -0.06200
C1439       C  0.81653440  0.39095523  0.27751176    -0.17500
C1440       C  0.81311615  0.40711494  0.25649086     0.10900
S1441       S  0.85761989  0.44462179  0.34913560    -0.32400
S1442       S  0.79641808  0.39206155  0.22030332    -0.32400
H1443       H  0.77623881  0.39856253  0.22370192     0.28900
H1444       H  0.83733572  0.42366932  0.36690244     0.28900
H1445       H  0.84577485  0.46603778  0.29790435     0.19500
H1446       H  0.80888555  0.37011732  0.27118245     0.19500
C1447       C  0.93686154  0.10455427  0.16402608    -0.06300
C1448       C  0.93124609  0.07917078  0.15439407    -0.17400
C1449       C  0.90403244  0.05731094  0.15169060     0.10900
C1450       C  0.88252787  0.06091580  0.16016664    -0.06200
C1451       C  0.88804966  0.08720701  0.16378153    -0.17500
C1452       C  0.91511101  0.10920875  0.16528688     0.10900
S1453       S  0.89833476  0.02435155  0.14369125    -0.32400
S1454       S  0.92073521  0.14226390  0.17272339    -0.32400
H1455       H  0.94752459  0.15682256  0.16139234     0.28900
H1456       H  0.87215411  0.01404934  0.13004217     0.28900
H1457       H  0.94785366  0.07556782  0.15250086     0.19500
H1458       H  0.87158820  0.09023691  0.16952373     0.19500
C1459       C  0.91336652  0.48797583  0.08652309    -0.06300
C1460       C  0.96044862  0.02012602  0.21360705    -0.17400
C1461       C  0.93680266  0.01959861  0.22277266     0.10900
C1462       C  0.87510955  0.49466989  0.12203815    -0.06200
C1463       C  0.86749500  0.46956185  0.10844722    -0.17500
C1464       C  0.88571253  0.46625096  0.09006588     0.10900
S1465       S  0.94205047  0.04980863  0.24074312    -0.32400
S1466       S  0.87287385  0.43434452  0.07054487    -0.32400
H1467       H  0.84504543  0.42280360  0.07744595     0.28900
H1468       H  0.92515622  0.05272615  0.21924297     0.28900
H1469       H  0.97961655  0.03841813  0.21895444     0.19500
H1470       H  0.84726410  0.45220126  0.11270457     0.19500
O1471       O  0.79788678  0.42532522  0.73042659    -0.58000
C1472       C  0.88342880  0.03952076  0.75940561     0.74600
O1473       O  0.84857172  0.98454006  0.66266729    -0.59200
C1474       C  0.78901635  0.42044118  0.70286222     0.74600
C1475       C  0.79288211  0.99841560  0.73447638     0.77000
Cd1476     Cd  0.84363718  0.99994756  0.71663978     1.37500
O1477       O  0.87960833  0.01617550  0.75607525    -0.58000
O1478       O  0.81057710  0.47909738  0.77887664    -0.56800
C1479       C  0.87498078  0.47646649  0.71889398     0.77000
O1480       O  0.78488722  0.47751837  0.74104170    -0.59200
O1481       O  0.86888131  0.04509404  0.74239027    -0.57600
O1482       O  0.79262603  0.44013284  0.68680035    -0.57600
O1483       O  0.87900193  0.02464828  0.67582268    -0.56800
O1484       O  0.52828222  0.15254368  0.79489433    -0.58000
C1485       C  0.97377575  0.12078132  0.83366285     0.74600
O1486       O  0.05041883  0.14547558  0.88324973    -0.59200
C1487       C  0.55398708  0.16367811  0.79879743     0.74600
C1488       C  0.02483228  0.21559235  0.85416766     0.77000
Cd1489     Cd  0.02435370  0.16478466  0.85895001     1.37500
O1490       O  0.99722964  0.12819055  0.82387736    -0.58000
O1491       O  0.54712148  0.21009358  0.84506756    -0.56800
C1492       C  0.52963406  0.12670852  0.89264008     0.77000
O1493       O  0.00298487  0.19255884  0.85600196    -0.59200
O1494       O  0.97303060  0.13428101  0.85595126    -0.57600
O1495       O  0.56399391  0.17324937  0.82523899    -0.57600
O1496       O  0.01967583  0.14291299  0.91184401    -0.56800
O1497       O  0.97504921  0.31546674  0.74089562    -0.58000
C1498       C  0.58080892  0.35980781  0.70733548     0.74600
O1499       O  0.02529251  0.29567730  0.75381338    -0.59200
C1500       C  0.96780560  0.30482664  0.71444198     0.74600
C1501       C  0.52938512  0.38587156  0.71912076     0.77000
Cd1502     Cd  0.02258294  0.33468416  0.73523074     1.37500
O1503       O  0.57496084  0.36028624  0.73500038    -0.58000
O1504       O  0.02248047  0.37686196  0.75147856    -0.56800
C1505       C  0.02586731  0.30034317  0.78225335     0.77000
O1506       O  0.02143857  0.36853175  0.70356677    -0.59200
O1507       O  0.56140864  0.34379633  0.68890490    -0.57600
O1508       O  0.98580139  0.30451300  0.69831351    -0.57600
O1509       O  0.02526094  0.32118315  0.78954024    -0.56800
O1510       O  0.61347396  0.12671137  0.70937069    -0.58000
C1511       C  0.63380512  0.08563854  0.69403746     0.74600
O1512       O  0.62135010  0.10340577  0.61354183    -0.59200
C1513       C  0.61167541  0.14718066  0.70522626     0.74600
C1514       C  0.69292241  0.17496724  0.67382270     0.77000
Cd1515     Cd  0.63694283  0.12996376  0.66380389     1.37500
O1516       O  0.62570191  0.10008905  0.70516591    -0.58000
O1517       O  0.68214671  0.15319670  0.68850303    -0.56800
C1518       C  0.59692034  0.09797508  0.61586391     0.77000
O1519       O  0.67920410  0.17527157  0.65067527    -0.59200
O1520       O  0.64454128  0.09212654  0.66791223    -0.57600
O1521       O  0.62013270  0.15948998  0.68003528    -0.57600
O1522       O  0.59323961  0.11120547  0.63595982    -0.56800
O1523       O  0.65179315  0.47952808  0.73244686    -0.58000
C1524       C  0.64087778  0.01492141  0.77833160     0.74600
O1525       O  0.64644341  0.00483734  0.86889805    -0.59200
C1526       C  0.64494091  0.45607458  0.74124173     0.74600
C1527       C  0.70169586  0.98922804  0.80442141     0.77000
Cd1528     Cd  0.64774871  0.98128411  0.81978178     1.37500
O1529       O  0.62068821  0.99256757  0.78679959    -0.58000
O1530       O  0.69872188  0.00900783  0.80888842    -0.56800
C1531       C  0.61183939  0.49530974  0.81458812     0.77000
O1532       O  0.68157872  0.96641859  0.81241409    -0.59200
O1533       O  0.66404305  0.02282092  0.79092822    -0.57600
O1534       O  0.64338131  0.45226107  0.76979991    -0.57600
O1535       O  0.61239421  0.96478290  0.86232097    -0.56800
C1536       C  0.98131163  0.49320619  0.67985136     0.86300
C1537       C  0.98588037  0.47094745  0.69114849    -0.53900
C1538       C  0.51266171  0.47375798  0.68454126     0.09200
C1539       C  0.52984948  0.50021652  0.66587737     0.20200
C1540       C  0.47301422  0.01587873  0.57833368    -0.54700
C1541       C  0.49259458  0.01271003  0.56567956     0.09300
C1542       C  0.98411683  0.49356654  0.64464050    -0.54200
C1543       C  0.50985287  0.49841264  0.63953152     0.09900
H1544       H  0.97137939  0.45461315  0.70562326     0.14400
H1545       H  0.54949585  0.50330802  0.65781694     0.00200
H1546       H  0.47908249  0.03178323  0.59512235     0.14700
H1547       H  0.96867289  0.49265210  0.62899031     0.14500
C1548       C  0.53329948  0.03780645  0.95490298     0.86300
C1549       C  0.53564226  0.03724528  0.98993508    -0.53900
C1550       C  0.48838554  0.50487533  0.88559638     0.09200
C1551       C  0.48973325  0.48562908  0.86169970     0.20200
C1552       C  0.55517575  0.03217516  0.94340346    -0.54700
C1553       C  0.51767133  0.50391499  0.84557898     0.09300
C1554       C  0.94795896  0.49346231  0.83080304    -0.54200
C1555       C  0.94777490  0.47128320  0.84197946     0.09900
H1556       H  0.53769648  0.05335500  0.00443092     0.14400
H1557       H  0.48721166  0.46738370  0.87272291     0.00200
H1558       H  0.56999931  0.04407339  0.92631019     0.14700
H1559       H  0.93317703  0.49171134  0.81352420     0.14500
O1560       O  0.87090905  0.32442934  0.70236802    -0.58000
C1561       C  0.80784721  0.34347457  0.70979392     0.74600
O1562       O  0.79736263  0.27858560  0.75095118    -0.59200
C1563       C  0.87483178  0.30839337  0.71830829     0.74600
C1564       C  0.87249382  0.36777760  0.78164302     0.77000
Cd1565     Cd  0.83842737  0.32383555  0.73769123     1.37500
O1566       O  0.82863878  0.34596551  0.69669321    -0.58000
O1567       O  0.87596960  0.36982585  0.75302461    -0.56800
C1568       C  0.79134263  0.27145659  0.72279705     0.77000
O1569       O  0.85293656  0.34499558  0.79102662    -0.59200
O1570       O  0.80284836  0.33340687  0.73634379    -0.57600
O1571       O  0.86287446  0.30105049  0.74371046    -0.57600
O1572       O  0.80786724  0.28799742  0.70355702    -0.56800
C1573       C  0.89048724  0.39142111  0.80231571    -0.06300
C1574       C  0.88082691  0.40759187  0.81264436    -0.17400
C1575       C  0.89855058  0.43275827  0.82741227     0.10900
C1576       C  0.92705315  0.44274146  0.83107291    -0.06200
C1577       C  0.93622476  0.42558714  0.82256914    -0.17500
C1578       C  0.91825169  0.40009486  0.80851254     0.10900
S1579       S  0.88415906  0.45130416  0.84247092    -0.32400
S1580       S  0.93088955  0.37874018  0.79807827    -0.32400
H1581       H  0.95674321  0.39424182  0.81298663     0.28900
H1582       H  0.85644273  0.43188275  0.83538234     0.28900
H1583       H  0.85944417  0.40077838  0.80832905     0.19500
H1584       H  0.95777642  0.43263297  0.82574972     0.19500
C1585       C  0.51505026  0.49997383  0.60509436    -0.06300
C1586       C  0.49120525  0.00320032  0.47409974    -0.17400
C1587       C  0.55050283  0.02459054  0.05841478     0.10900
C1588       C  0.48663168  0.50132737  0.92018384    -0.06200
C1589       C  0.94295338  0.46940121  0.93531044    -0.17500
C1590       C  0.99495081  0.47985474  0.57786397     0.10900
S1591       S  0.58532351  0.04869133  0.04778762    -0.32400
S1592       S  0.96197591  0.45077083  0.58693696    -0.32400
H1593       H  0.97048562  0.44568302  0.61515966     0.28900
H1594       H  0.58405726  0.03628468  0.01975947     0.28900
H1595       H  0.50873692  0.01112918  0.48975646     0.19500
H1596       H  0.92644218  0.45618933  0.91938489     0.19500
C1597       C  0.54191786  0.49984502  0.84300867    -0.06300
C1598       C  0.59992514  0.02006249  0.93655173    -0.17400
C1599       C  0.61743931  0.01564938  0.91864910     0.10900
C1600       C  0.58897988  0.49701959  0.82790306    -0.06200
C1601       C  0.56312824  0.47341784  0.83209088    -0.17500
C1602       C  0.53971821  0.47439545  0.83967447     0.10900
S1603       S  0.65270040  0.04312105  0.91686249    -0.32400
S1604       S  0.50748677  0.44273064  0.84329674    -0.32400
H1605       H  0.51826439  0.42595489  0.84486448     0.28900
H1606       H  0.66323541  0.02632216  0.92140514     0.28900
H1607       H  0.60832125  0.03973599  0.94730738     0.19500
H1608       H  0.56106904  0.45408007  0.82816491     0.19500
C1609       C  0.71894242  0.19903486  0.68556727    -0.06300
C1610       C  0.72180066  0.20413650  0.71731140    -0.17400
C1611       C  0.74477693  0.22731054  0.73032277     0.10900
C1612       C  0.76635562  0.24570169  0.71145834    -0.06200
C1613       C  0.76374977  0.23993642  0.67970020    -0.16700
C1614       C  0.74033253  0.21706667  0.66662111     0.10900
S1615       S  0.74452420  0.23252778  0.77080853    -0.32400
S1616       S  0.73846090  0.21049054  0.62604078    -0.32400
H1617       H  0.76429867  0.23312618  0.61904395     0.28900
H1618       H  0.74818355  0.25826903  0.76725421     0.28900
H1619       H  0.70534867  0.19041889  0.73210482     0.19500
H1620       H  0.78008306  0.25356341  0.66481849     0.19500
C1621       C  0.52188564  0.03026289  0.57682036    -0.06300
C1622       C  0.54239051  0.04842261  0.55688916    -0.17400
C1623       C  0.56784288  0.07040979  0.56828263     0.10900
C1624       C  0.57266432  0.07451725  0.60028416    -0.06200
C1625       C  0.55292150  0.05527179  0.61978492    -0.17500
C1626       C  0.52820564  0.03317204  0.60862642     0.10900
S1627       S  0.59231975  0.09308159  0.54099503    -0.32400
S1628       S  0.50505160  0.01005110  0.63668989    -0.32400
H1629       H  0.49325530  0.98720278  0.61749339     0.28900
H1630       H  0.60589450  0.11599084  0.56025868     0.28900
H1631       H  0.53793730  0.04652760  0.53250066     0.19500
H1632       H  0.55673251  0.05759251  0.64433419     0.19500
C1633       C  0.63746237  0.03054618  0.75448835    -0.06300
C1634       C  0.61604760  0.03516796  0.75681642    -0.17400
C1635       C  0.61275568  0.05108048  0.73549683     0.10900
C1636       C  0.63188450  0.06333535  0.71184182    -0.06200
C1637       C  0.65176026  0.05660842  0.70794429    -0.17500
C1638       C  0.65452540  0.03998343  0.72897045     0.10900
S1639       S  0.58371118  0.05480711  0.73982635    -0.32400
S1640       S  0.67932815  0.03042126  0.72281323    -0.32400
H1641       H  0.68681923  0.04144047  0.69341062     0.28900
H1642       H  0.57896527  0.05561027  0.70821773     0.28900
H1643       H  0.60205923  0.02666660  0.77563840     0.19500
H1644       H  0.66591257  0.06536630  0.68934012     0.19500
C1645       C  0.94014601  0.29612450  0.70300634    -0.06300
C1646       C  0.91825872  0.27744838  0.72074898    -0.17400
C1647       C  0.89470464  0.27864993  0.72312214     0.10900
C1648       C  0.89369461  0.29990240  0.70862318    -0.06200
C1649       C  0.91369476  0.31578297  0.68723483    -0.17500
C1650       C  0.93670106  0.31377292  0.68392562     0.10900
S1651       S  0.86758151  0.25349061  0.74631748    -0.32400
S1652       S  0.96314516  0.33755740  0.65905745    -0.32400
H1653       H  0.97211025  0.32013171  0.65125287     0.28900
H1654       H  0.84628595  0.25227552  0.72828022     0.28900
H1655       H  0.92058676  0.26349990  0.73503577     0.19500
H1656       H  0.91269698  0.33142646  0.67490166     0.19500
C1657       C  0.60814999  0.38083385  0.69738257    -0.06300
C1658       C  0.60802259  0.40158788  0.68106923    -0.17400
C1659       C  0.62244950  0.42815126  0.69298709     0.10900
C1660       C  0.63847973  0.43360072  0.72013252    -0.06200
C1661       C  0.64437583  0.41430142  0.73049700    -0.17500
C1662       C  0.62992238  0.38805224  0.71840792     0.10900
S1663       S  0.61658809  0.45317427  0.67641780    -0.32400
S1664       S  0.63466243  0.36280664  0.73616142    -0.32400
H1665       H  0.61740575  0.34203409  0.71515701     0.28900
H1666       H  0.60147707  0.43784210  0.65043504     0.28900
H1667       H  0.59228019  0.39615616  0.66347356     0.19500
H1668       H  0.65813608  0.41881825  0.75008760     0.19500
C1669       C  0.52893665  0.41103635  0.71173063    -0.06300
C1670       C  0.02074473  0.41375608  0.68302509    -0.17400
C1671       C  0.01850521  0.43528401  0.67184678     0.10900
C1672       C  0.52100756  0.45390668  0.69327752    -0.06200
C1673       C  0.51985530  0.44648432  0.72417419    -0.17500
C1674       C  0.52430725  0.42593934  0.73361129     0.10900
S1675       S  0.01706198  0.43963037  0.63112151    -0.32400
S1676       S  0.52327665  0.41955084  0.77392966    -0.32400
H1677       H  0.54825994  0.42040359  0.77451457     0.28900
H1678       H  0.01489510  0.41538703  0.62214707     0.28900
H1679       H  0.02231278  0.40075363  0.66670455     0.19500
H1680       H  0.51492448  0.45649786  0.74132598     0.19500
C1681       C  0.02504025  0.24005227  0.84203314    -0.06300
C1682       C  0.05017761  0.26284044  0.83297133    -0.17400
C1683       C  0.05118003  0.28362283  0.81519269     0.10900
C1684       C  0.02655480  0.28178200  0.80547007    -0.06200
C1685       C  0.55234847  0.28137331  0.80540718    -0.17500
C1686       C  0.55324091  0.26175336  0.82355399     0.10900
S1687       S  0.08448407  0.31128759  0.80429316    -0.32400
S1688       S  0.58672836  0.26762757  0.83290423    -0.32400
H1689       H  0.58014492  0.25845759  0.86312672     0.28900
H1690       H  0.07703571  0.33063875  0.80135247     0.28900
H1691       H  0.06926437  0.26399629  0.83859238     0.19500
H1692       H  0.57136127  0.29837413  0.79711186     0.19500
C1693       C  0.57114751  0.16374208  0.77435255    -0.06300
C1694       C  0.59143796  0.15828454  0.78256472    -0.17400
C1695       C  0.60593225  0.15421782  0.76040143     0.10900
C1696       C  0.60017912  0.15574035  0.72908668    -0.06200
C1697       C  0.58113208  0.16291873  0.72079680    -0.17500
C1698       C  0.56630208  0.16671268  0.74316487     0.10900
S1699       S  0.63122223  0.14676006  0.77373916    -0.32400
S1700       S  0.54144450  0.17538155  0.73170122    -0.32400
H1701       H  0.54424050  0.17444331  0.69994375     0.28900
H1702       H  0.64966843  0.16054751  0.75011693     0.28900
H1703       H  0.59531607  0.15610453  0.80646389     0.19500
H1704       H  0.57699441  0.16428440  0.69679242     0.19500
C1705       C  0.53425455  0.06359630  0.94225169    -0.06300
C1706       C  0.55580340  0.08243185  0.92358363    -0.17400
C1707       C  0.55558449  0.10395003  0.90910527     0.10900
C1708       C  0.53336482  0.10768880  0.91272372    -0.06200
C1709       C  0.01893634  0.09898451  0.94689032    -0.17500
C1710       C  0.01856159  0.07694398  0.96146062     0.10900
S1711       S  0.58488887  0.12636268  0.88647892    -0.32400
S1712       S  0.99095266  0.05610483  0.98697486    -0.32400
H1713       H  0.97984451  0.07258437  0.98788799     0.28900
H1714       H  0.58468098  0.14980775  0.89353776     0.28900
H1715       H  0.57358330  0.08119946  0.92005719     0.19500
H1716       H  0.00172279  0.10153521  0.94941942     0.19500
C1717       C  0.72597419  0.99204099  0.78799598    -0.06300
C1718       C  0.72268643  0.46398884  0.80174377    -0.17400
C1719       C  0.74299020  0.45956740  0.79163787     0.10900
C1720       C  0.76875132  0.99672841  0.75011008    -0.06200
C1721       C  0.77333598  0.01802441  0.76971294    -0.17500
C1722       C  0.75253664  0.01598023  0.78841420     0.10900
S1723       S  0.73202523  0.42608621  0.77777684    -0.32400
S1724       S  0.76169432  0.04426957  0.81330275    -0.32400
H1725       H  0.74577915  0.02832773  0.83772259     0.28900
H1726       H  0.75742736  0.42828300  0.78290591     0.28900
H1727       H  0.70144184  0.44734181  0.80038175     0.19500
H1728       H  0.79366326  0.03618048  0.77138619     0.19500
C1729       C  0.77934879  0.39383773  0.68947483    -0.06300
C1730       C  0.76284082  0.37139006  0.70769416    -0.17400
C1731       C  0.76832690  0.35081232  0.71048066     0.10900
C1732       C  0.79164612  0.35397281  0.69605074    -0.06200
C1733       C  0.80330977  0.37268528  0.67235851    -0.17500
C1734       C  0.79661575  0.39227564  0.66825817     0.10900
S1735       S  0.74669583  0.32269331  0.73477929    -0.32400
S1736       S  0.81576710  0.41837606  0.64076425    -0.32400
H1737       H  0.79446081  0.42307003  0.63461533     0.28900
H1738       H  0.75158484  0.30439174  0.71964884     0.28900
H1739       H  0.74826833  0.37165191  0.72277344     0.19500
H1740       H  0.81994227  0.37419643  0.65945353     0.19500
C1741       C  0.94898323  0.09785301  0.81880412    -0.06300
C1742       C  0.92509452  0.09873686  0.81506607    -0.17400
C1743       C  0.90276895  0.07937361  0.79687729     0.10900
C1744       C  0.90467686  0.05917085  0.78134382    -0.06200
C1745       C  0.92798864  0.05757810  0.78653120    -0.17500
C1746       C  0.94979330  0.07625397  0.80535055     0.10900
S1747       S  0.87232350  0.08109021  0.79511702    -0.32400
S1748       S  0.97791213  0.07107650  0.81148160    -0.32400
H1749       H  0.98307407  0.08005520  0.84214598     0.28900
H1750       H  0.85385145  0.05285618  0.79504343     0.28900
H1751       H  0.92403440  0.11490151  0.82577177     0.19500
H1752       H  0.92945939  0.04176718  0.77550505     0.19500
C1753       C  0.95340122  0.48847205  0.69108062    -0.06300
C1754       C  0.93394155  0.02961547  0.60553222    -0.17400
C1755       C  0.91513151  0.03092714  0.62450546     0.10900
C1756       C  0.90219402  0.48006082  0.71204770    -0.06200
C1757       C  0.90280880  0.46182018  0.69162805    -0.17500
C1758       C  0.92769994  0.46534121  0.68160186     0.10900
S1759       S  0.92567128  0.06374474  0.64007449    -0.32400
S1760       S  0.92582980  0.43951546  0.65699856    -0.32400
H1761       H  0.89772723  0.42011441  0.66034802     0.28900
H1762       H  0.89980514  0.06057326  0.63491677     0.28900
H1763       H  0.95317836  0.04830015  0.60188002     0.19500
H1764       H  0.88348318  0.44462242  0.68332301     0.19500
O1765       O  0.80651837  0.95014462  0.22825219    -0.58000
C1766       C  0.86968774  0.53761587  0.24615860     0.74600
O1767       O  0.83488513  0.47558545  0.15482302    -0.59200
C1768       C  0.79975228  0.94424463  0.20024294     0.74600
C1769       C  0.78168502  0.49630715  0.22686114     0.77000
Cd1770     Cd  0.83057637  0.49678491  0.20470419     1.37500
O1771       O  0.86476177  0.51376697  0.24483345    -0.58000
O1772       O  0.81492833  0.99798734  0.27251612    -0.56800
C1773       C  0.88401153  0.99563286  0.22258693     0.77000
O1774       O  0.80035055  0.01049660  0.23405877    -0.59200
O1775       O  0.85781108  0.54383627  0.22587139    -0.57600
O1776       O  0.80396212  0.96326422  0.18242312    -0.57600
O1777       O  0.86438836  0.51736219  0.16154340    -0.56800
O1778       O  0.53673712  0.65504531  0.30008167    -0.58000
C1779       C  0.95277724  0.61139462  0.33096080     0.74600
O1780       O  0.99834223  0.62852111  0.40674048    -0.59200
C1781       C  0.56074942  0.67572101  0.30205721     0.74600
C1782       C  0.00301192  0.70357275  0.35736699     0.77000
Cd1783     Cd  0.00414620  0.65331620  0.35586046     1.37500
O1784       O  0.97552256  0.61891485  0.31907318    -0.58000
O1785       O  0.53488354  0.71082734  0.35695126    -0.56800
C1786       C  0.52957464  0.63190613  0.39832305     0.77000
O1787       O  0.98289814  0.68071784  0.34924981    -0.59200
O1788       O  0.95322995  0.62266926  0.35591504    -0.57600
O1789       O  0.56727686  0.68972410  0.32649149    -0.57600
O1790       O  0.03154162  0.63582769  0.37898699    -0.56800
O1791       O  0.96931019  0.81584725  0.25526949    -0.58000
C1792       C  0.56956359  0.86347093  0.21836106     0.74600
O1793       O  0.01354214  0.79465808  0.27489203    -0.59200
C1794       C  0.96597692  0.80698205  0.22801542     0.74600
C1795       C  0.51725847  0.88672307  0.22419772     0.77000
Cd1796     Cd  0.01733682  0.83653333  0.25735748     1.37500
O1797       O  0.56357647  0.86412211  0.24595857    -0.58000
O1798       O  0.01604939  0.87915311  0.26636349    -0.56800
C1799       C  0.01056373  0.79712951  0.30312251     0.77000
O1800       O  0.02127586  0.87023060  0.22017811    -0.59200
O1801       O  0.55026981  0.84736963  0.19975792    -0.57600
O1802       O  0.98652011  0.80875733  0.21505721    -0.57600
O1803       O  0.01010143  0.81797791  0.31103043    -0.56800
O1804       O  0.63790475  0.66154127  0.21955169    -0.58000
C1805       C  0.65205745  0.61335851  0.20962026     0.74600
O1806       O  0.62497992  0.62891505  0.11726205    -0.59200
C1807       C  0.62648336  0.67370115  0.20984248     0.74600
C1808       C  0.70335610  0.69555372  0.17041143     0.77000
Cd1809     Cd  0.64686709  0.64945171  0.17086579     1.37500
O1810       O  0.63960200  0.62489857  0.21728348    -0.58000
O1811       O  0.69731392  0.67194956  0.17732806    -0.56800
C1812       C  0.60234009  0.61012092  0.12794843     0.77000
O1813       O  0.68416519  0.69715213  0.15758582    -0.59200
O1814       O  0.66163568  0.61780850  0.18287317    -0.57600
O1815       O  0.62452128  0.67525367  0.18103512    -0.57600
O1816       O  0.60090740  0.61049210  0.15665286    -0.56800
O1817       O  0.64460091  0.98333604  0.23821766    -0.58000
C1818       C  0.65181678  0.53591400  0.29157327     0.74600
O1819       O  0.61462291  0.47838313  0.36850127    -0.59200
C1820       C  0.64088097  0.96130567  0.24842714     0.74600
C1821       C  0.70342777  0.50052456  0.30880329     0.77000
Cd1822     Cd  0.65207812  0.49603366  0.32941204     1.37500
O1823       O  0.63630846  0.51084595  0.28618735    -0.58000
O1824       O  0.69947011  0.51988780  0.30785631    -0.56800
C1825       C  0.60762822  0.00106693  0.31840064     0.77000
O1826       O  0.68606516  0.48043435  0.32431809    -0.59200
O1827       O  0.66632381  0.54277248  0.31607200    -0.57600
O1828       O  0.64396322  0.96021605  0.27710492    -0.57600
O1829       O  0.65081307  0.51530403  0.38203000    -0.56800
C1830       C  0.98583059  0.99972421  0.18674833     0.86300
C1831       C  0.98702618  0.97517210  0.19788781    -0.53900
C1832       C  0.50829066  0.97675691  0.18022577     0.09200
C1833       C  0.52907271  0.00238090  0.16221373     0.20200
C1834       C  0.47942833  0.52454963  0.07647116    -0.54700
C1835       C  0.50167108  0.52462446  0.06604957     0.09300
C1836       C  0.98910865  0.00031603  0.15177491    -0.54200
C1837       C  0.51178412  0.00404251  0.13501878     0.09900
H1838       H  0.97169997  0.95980448  0.21257744     0.14400
H1839       H  0.54737519  0.00218024  0.15497994     0.00200
H1840       H  0.48217352  0.53966886  0.09301615     0.14700
H1841       H  0.97515022  0.00215955  0.13631074     0.14500
C1842       C  0.53001805  0.54173824  0.46044792     0.86300
C1843       C  0.52854129  0.53803325  0.49540580    -0.53900
C1844       C  0.47835481  0.00265393  0.38648027     0.09200
C1845       C  0.48089862  0.98385819  0.36302948     0.20200
C1846       C  0.55350315  0.53761142  0.45125191    -0.54700
C1847       C  0.50929678  0.00253889  0.34805351     0.09300
C1848       C  0.97659587  0.00858859  0.33163780    -0.54200
C1849       C  0.97294891  0.98595794  0.34574177     0.09900
H1850       H  0.52961649  0.55308874  0.51093964     0.14400
H1851       H  0.47890037  0.96547520  0.37332704     0.00200
H1852       H  0.56988532  0.55130478  0.43648830     0.14700
H1853       H  0.96420132  0.00732990  0.31178339     0.14500
O1854       O  0.88081619  0.83829632  0.20236390    -0.58000
C1855       C  0.82408981  0.86841349  0.21284322     0.74600
O1856       O  0.80792854  0.79850134  0.24773140    -0.59200
C1857       C  0.88154625  0.82080550  0.21929546     0.74600
C1858       C  0.89179141  0.88700032  0.27891440     0.77000
Cd1859     Cd  0.85108266  0.84356246  0.23694318     1.37500
O1860       O  0.84314402  0.86872764  0.19807413    -0.58000
O1861       O  0.89388280  0.88718898  0.25005546    -0.56800
C1862       C  0.80220301  0.79250576  0.21922923     0.77000
O1863       O  0.87017826  0.86642276  0.28945364    -0.59200
O1864       O  0.81949255  0.85827261  0.23940379    -0.57600
O1865       O  0.86942273  0.81557232  0.24461978    -0.57600
O1866       O  0.81872424  0.80999582  0.20062167    -0.56800
C1867       C  0.91351439  0.91015502  0.29867292    -0.06300
C1868       C  0.90605973  0.91843951  0.32503782    -0.17400
C1869       C  0.92526573  0.94229449  0.34165986     0.10900
C1870       C  0.95278899  0.95829730  0.33227084    -0.06200
C1871       C  0.96032379  0.94971886  0.30641761    -0.17500
C1872       C  0.94148545  0.92582176  0.29019983     0.10900
S1873       S  0.91412666  0.95325400  0.37361553    -0.32400
S1874       S  0.95483195  0.91620609  0.25920238    -0.32400
H1875       H  0.93866888  0.88826458  0.26490485     0.28900
H1876       H  0.88709760  0.93063105  0.37394389     0.28900
H1877       H  0.88484083  0.90689295  0.33180054     0.19500
H1878       H  0.98118457  0.96197967  0.29852641     0.19500
C1879       C  0.51784330  0.00442187  0.10093048    -0.06300
C1880       C  0.50304440  0.51915575  0.97263696    -0.17400
C1881       C  0.54442603  0.52533227  0.56160923     0.10900
C1882       C  0.47405506  0.99774749  0.42072216    -0.06200
C1883       C  0.96620155  0.98498728  0.44082391    -0.17500
C1884       C  0.99674574  0.98809268  0.08411770     0.10900
S1885       S  0.57739981  0.55311145  0.55016299    -0.32400
S1886       S  0.96108843  0.96410566  0.09157227    -0.32400
H1887       H  0.96642361  0.95345102  0.11775770     0.28900
H1888       H  0.57801993  0.54103524  0.52265303     0.28900
H1889       H  0.51887395  0.53466874  0.98757483     0.19500
H1890       H  0.95272124  0.96863739  0.42522202     0.19500
C1891       C  0.53273577  0.99777803  0.34551013    -0.06300
C1892       C  0.59928603  0.52759316  0.44606860    -0.17400
C1893       C  0.61826896  0.52467533  0.42916822     0.10900
C1894       C  0.58207416  0.99897191  0.33065003    -0.06200
C1895       C  0.55637060  0.98030671  0.31665735    -0.17500
C1896       C  0.53198345  0.97945101  0.32381944     0.10900
S1897       S  0.65300052  0.55331853  0.42858104    -0.32400
S1898       S  0.50042551  0.95632394  0.30319590    -0.32400
H1899       H  0.51099188  0.94440622  0.28467492     0.28900
H1900       H  0.66466552  0.53762496  0.43417510     0.28900
H1901       H  0.60631739  0.54703313  0.45675667     0.19500
H1902       H  0.55551336  0.96672167  0.29927172     0.19500
C1903       C  0.73031357  0.71988682  0.18048964    -0.06300
C1904       C  0.74190565  0.71881305  0.20885580    -0.17400
C1905       C  0.76515370  0.74173319  0.22212474     0.10900
C1906       C  0.77748141  0.76688073  0.20698709    -0.06200
C1907       C  0.76644908  0.76767546  0.17805216    -0.16700
C1908       C  0.74318403  0.74465373  0.16473845     0.10900
S1909       S  0.77804431  0.73713898  0.25811077    -0.32400
S1910       S  0.73066715  0.74696935  0.12728599    -0.32400
H1911       H  0.75153994  0.77388945  0.12152403     0.28900
H1912       H  0.80586895  0.75444157  0.25147915     0.28900
H1913       H  0.73233194  0.69996959  0.22131573     0.19500
H1914       H  0.77591905  0.78664606  0.16591411     0.19500
C1915       C  0.52989786  0.54473835  0.07917765    -0.06300
C1916       C  0.54701499  0.56951598  0.06441736    -0.17400
C1917       C  0.57086559  0.59113172  0.07915528     0.10900
C1918       C  0.57847945  0.58801446  0.10928557    -0.06200
C1919       C  0.56158461  0.56289822  0.12351382    -0.17500
C1920       C  0.53755397  0.54162882  0.10913255     0.10900
S1921       S  0.58920152  0.62282518  0.05937505    -0.32400
S1922       S  0.51573452  0.51114642  0.13024617    -0.32400
H1923       H  0.53485953  0.51606570  0.15399122     0.28900
H1924       H  0.59265436  0.63875370  0.08522068     0.28900
H1925       H  0.54090083  0.57262567  0.04191290     0.19500
H1926       H  0.56681799  0.56013255  0.14661136     0.19500
C1927       C  0.65302141  0.55605565  0.27017477    -0.06300
C1928       C  0.65649827  0.58000062  0.28207783    -0.17400
C1929       C  0.65744096  0.59961040  0.26279885     0.10900
C1930       C  0.65453408  0.59509044  0.23079578    -0.06200
C1931       C  0.65208283  0.57164017  0.21881716    -0.17500
C1932       C  0.65128253  0.55203253  0.23810658     0.10900
S1933       S  0.66313900  0.63018290  0.28048822    -0.32400
S1934       S  0.64897276  0.52255802  0.22129827    -0.32400
H1935       H  0.64930925  0.52967600  0.19047411     0.28900
H1936       H  0.67986641  0.64748979  0.25730411     0.28900
H1937       H  0.65837185  0.58341544  0.30660222     0.19500
H1938       H  0.65006310  0.56838757  0.19428855     0.19500
C1939       C  0.93984284  0.79832160  0.21200165    -0.06300
C1940       C  0.91599712  0.78152292  0.22823666    -0.17400
C1941       C  0.89419951  0.78570620  0.22713733     0.10900
C1942       C  0.89720451  0.80823616  0.21109612    -0.06200
C1943       C  0.91858042  0.82141786  0.19036643    -0.17500
C1944       C  0.93941496  0.81577509  0.18986223     0.10900
S1945       S  0.86388959  0.76262646  0.24780298    -0.32400
S1946       S  0.96717207  0.83462488  0.16413157    -0.32400
H1947       H  0.97308357  0.81418810  0.16126300     0.28900
H1948       H  0.84614707  0.76454304  0.22662459     0.28900
H1949       H  0.91556443  0.76709724  0.24431236     0.19500
H1950       H  0.92034820  0.83761288  0.17633166     0.19500
C1951       C  0.59729680  0.88393432  0.20886651    -0.06300
C1952       C  0.59871294  0.90499198  0.19164252    -0.17400
C1953       C  0.61591390  0.93199729  0.20157834     0.10900
C1954       C  0.63198170  0.93728657  0.22875685    -0.06200
C1955       C  0.63552683  0.91681198  0.24046002    -0.17500
C1956       C  0.61885181  0.89021395  0.22985833     0.10900
S1957       S  0.61414016  0.95839883  0.18185237    -0.32400
S1958       S  0.62132636  0.86406512  0.24885286    -0.32400
H1959       H  0.60339303  0.84333278  0.22815674     0.28900
H1960       H  0.59623460  0.94209298  0.15788017     0.28900
H1961       H  0.58292684  0.90013565  0.17429245     0.19500
H1962       H  0.64934198  0.92094798  0.25988662     0.19500
C1963       C  0.51625797  0.91067550  0.21387854    -0.06300
C1964       C  0.00867849  0.90849653  0.19537636    -0.17400
C1965       C  0.00639056  0.92956961  0.18260392     0.10900
C1966       C  0.51192267  0.95387764  0.18942862    -0.06200
C1967       C  0.53502998  0.95915315  0.20733545    -0.17500
C1968       C  0.53729810  0.93795704  0.21979124     0.10900
S1969       S  0.99263564  0.92610350  0.14420301    -0.32400
S1970       S  0.56757763  0.94709375  0.24264666    -0.32400
H1971       H  0.56859329  0.92418863  0.23532211     0.28900
H1972       H  0.98511872  0.89913274  0.13931961     0.28900
H1973       H  0.00242715  0.89065311  0.18170413     0.19500
H1974       H  0.55121938  0.97991386  0.21216424     0.19500
C1975       C  0.00312655  0.72914599  0.35172513    -0.06300
C1976       C  0.02844955  0.75400267  0.35169914    -0.17400
C1977       C  0.03087797  0.77740170  0.33900252     0.10900
C1978       C  0.00774670  0.77617869  0.32506349    -0.06200
C1979       C  0.49224961  0.75099580  0.29738368    -0.17500
C1980       C  0.49024184  0.72905177  0.31319086     0.10900
S1981       S  0.06451035  0.80771486  0.33948576    -0.32400
S1982       S  0.45792675  0.69737307  0.30883875    -0.32400
H1983       H  0.45673926  0.69085013  0.34001221     0.28900
H1984       H  0.05551479  0.82593020  0.33799964     0.28900
H1985       H  0.04687058  0.75497124  0.36010272     0.19500
H1986       H  0.47523498  0.74759718  0.28260246     0.19500
C1987       C  0.57997317  0.68222898  0.27711170    -0.06300
C1988       C  0.60720468  0.69032801  0.28434511    -0.17400
C1989       C  0.62434157  0.69088693  0.26179759     0.10900
C1990       C  0.61392127  0.68302883  0.23146211    -0.06200
C1991       C  0.58789500  0.67820196  0.22365086    -0.17500
C1992       C  0.57067922  0.67752461  0.24620452     0.10900
S1993       S  0.65881334  0.70060797  0.27337298    -0.32400
S1994       S  0.53660055  0.66975684  0.23535567    -0.32400
H1995       H  0.53805858  0.66595051  0.20388349     0.28900
H1996       H  0.67023753  0.71041767  0.24457740     0.28900
H1997       H  0.61464805  0.69463724  0.30791209     0.19500
H1998       H  0.58016211  0.67267050  0.20030424     0.19500
C1999       C  0.53175698  0.56823564  0.44942315    -0.06300
C2000       C  0.55578328  0.58973201  0.43632419    -0.17400
C2001       C  0.55644042  0.61189732  0.42226278     0.10900
C2002       C  0.53232015  0.61294381  0.41979012    -0.06200
C2003       C  0.00260882  0.58659245  0.43986310    -0.17500
C2004       C  0.00511498  0.56596659  0.45374500     0.10900
S2005       S  0.58913351  0.63849975  0.40854351    -0.32400
S2006       S  0.97751996  0.54160354  0.47737857    -0.32400
H2007       H  0.96071123  0.55240453  0.47452009     0.28900
H2008       H  0.58543371  0.65951291  0.41758588     0.28900
H2009       H  0.57471990  0.59002114  0.43730913     0.19500
H2010       H  0.98369601  0.58630340  0.44185175     0.19500
C2011       C  0.72534711  0.50035476  0.29027956    -0.06300
C2012       C  0.73513065  0.98774635  0.30651363    -0.17400
C2013       C  0.75702306  0.98576557  0.29591248     0.10900
C2014       C  0.76048897  0.49665624  0.24677080    -0.06200
C2015       C  0.76422259  0.52176202  0.25532140    -0.17500
C2016       C  0.74741282  0.52389582  0.27680878     0.10900
S2017       S  0.75358206  0.95323637  0.29776599    -0.32400
S2018       S  0.75615013  0.55756283  0.28690922    -0.32400
H2019       H  0.75110302  0.55192451  0.31820783     0.28900
H2020       H  0.78071900  0.96374911  0.30845214     0.28900
H2021       H  0.71706751  0.96963934  0.31474057     0.19500
H2022       H  0.78104945  0.54020261  0.24589265     0.19500
C2023       C  0.79282200  0.91760538  0.18911267    -0.06300
C2024       C  0.77759453  0.89587046  0.20875991    -0.17400
C2025       C  0.78516442  0.87702015  0.21429376     0.10900
C2026       C  0.80888741  0.88055351  0.20038238    -0.06200
C2027       C  0.82030038  0.89887855  0.17625987    -0.17500
C2028       C  0.81179861  0.91686507  0.16979828     0.10900
S2029       S  0.76493202  0.85035009  0.24082992    -0.32400
S2030       S  0.83002686  0.94192486  0.14097848    -0.32400
H2031       H  0.80736532  0.94391548  0.13244068     0.28900
H2032       H  0.76826160  0.83100221  0.22571701     0.28900
H2033       H  0.76214928  0.89561265  0.22280210     0.19500
H2034       H  0.83746770  0.90085086  0.16404846     0.19500
C2035       C  0.92745172  0.59060335  0.31546852    -0.06300
C2036       C  0.91102037  0.59837771  0.30009796    -0.17400
C2037       C  0.89121156  0.58133647  0.27804636     0.10900
C2038       C  0.88843465  0.55632788  0.27057379    -0.06200
C2039       C  0.90399322  0.54820329  0.28751590    -0.17500
C2040       C  0.92315175  0.56488136  0.30990130     0.10900
S2041       S  0.87058610  0.59285946  0.26035787    -0.32400
S2042       S  0.94247381  0.55274176  0.32971901    -0.32400
H2043       H  0.94798113  0.56834913  0.35645743     0.28900
H2044       H  0.84566113  0.56804983  0.26414619     0.28900
H2045       H  0.91446186  0.61829059  0.30432778     0.19500
H2046       H  0.90175573  0.52884646  0.28295305     0.19500
C2047       C  0.95921526  0.99862323  0.19688972    -0.06300
C2048       C  0.91953143  0.51363347  0.09714963    -0.17400
C2049       C  0.90118161  0.51719318  0.11435582     0.10900
C2050       C  0.91035843  0.99673555  0.21637001    -0.06200
C2051       C  0.90882575  0.97516948  0.19994114    -0.17500
C2052       C  0.93244420  0.97590453  0.18988099     0.10900
S2053       S  0.91279609  0.55142136  0.12567376    -0.32400
S2054       S  0.92758894  0.94750849  0.16756204    -0.32400
H2055       H  0.89871012  0.93174825  0.16777612     0.28900
H2056       H  0.88774478  0.54904999  0.11741050     0.28900
H2057       H  0.93870167  0.53172926  0.09155476     0.19500
H2058       H  0.88876005  0.95768881  0.19425230     0.19500
O2059       O  0.85823098  0.97717958  0.75116453    -0.58000
C2060       C  0.84069278  0.51969869  0.68993408     0.74600
O2061       O  0.85628985  0.46759086  0.69835492    -0.59200
C2062       C  0.83725218  0.95368382  0.74771671     0.74600
C2063       C  0.78961773  0.47952740  0.76956298     0.77000
Cd2064     Cd  0.82262781  0.47347806  0.72498254     1.37500
O2065       O  0.85031685  0.52009828  0.71639714    -0.58000
O2066       O  0.81532915  0.02059137  0.73034583    -0.56800
C2067       C  0.87139676  0.00566326  0.65665268     0.77000
O2068       O  0.79295763  0.97761814  0.72639810    -0.59200
O2069       O  0.82068926  0.49746505  0.67962604    -0.57600
O2070       O  0.81892510  0.95075148  0.72858327    -0.57600
O2071       O  0.86909957  0.48246693  0.74439294    -0.56800
O2072       O  0.53642877  0.67021860  0.69985610    -0.58000
C2073       C  0.91986711  0.61726165  0.70231242     0.74600
O2074       O  0.95195987  0.62250553  0.79372924    -0.59200
C2075       C  0.55238295  0.68809845  0.71933740     0.74600
C2076       C  0.96294655  0.69900165  0.72629027     0.77000
Cd2077     Cd  0.96282183  0.65054057  0.74397501     1.37500
O2078       O  0.94475155  0.62646053  0.69573506    -0.58000
O2079       O  0.49401350  0.68941351  0.68978732    -0.56800
C2080       C  0.49405218  0.61866209  0.77055663     0.77000
O2081       O  0.95239904  0.68757638  0.75166625    -0.59200
O2082       O  0.91538524  0.62377520  0.72821871    -0.57600
O2083       O  0.54108878  0.69259687  0.74121835    -0.57600
O2084       O  0.96927609  0.61278528  0.75647307    -0.56800
O2085       O  0.98054642  0.87126967  0.72016159    -0.58000
C2086       C  0.53058595  0.86517632  0.69881389     0.74600
O2087       O  0.99510653  0.81671682  0.66606123    -0.59200
C2088       C  0.95586941  0.85290503  0.72474084     0.74600
C2089       C  0.47837789  0.87946769  0.61550281     0.77000
Cd2090     Cd  0.98426431  0.85314444  0.67203549     1.37500
O2091       O  0.50709524  0.85671270  0.70926267    -0.58000
O2092       O  0.00158650  0.88630344  0.62849258    -0.56800
C2093       C  0.97275347  0.79754023  0.67645692     0.77000
O2094       O  0.95886228  0.86748895  0.63590017    -0.59200
O2095       O  0.53198155  0.86425772  0.66992043    -0.57600
O2096       O  0.94340541  0.83544759  0.70360081    -0.57600
O2097       O  0.95446731  0.80308248  0.68008726    -0.56800
O2098       O  0.64833062  0.69018662  0.76933409    -0.58000
C2099       C  0.70999987  0.65251387  0.75245972     0.74600
O2100       O  0.64981944  0.63921078  0.72488721    -0.59200
C2101       C  0.65294697  0.70107349  0.74315089     0.74600
C2102       C  0.71578937  0.71241410  0.81057005     0.77000
Cd2103     Cd  0.67778727  0.67354146  0.76449870     1.37500
O2104       O  0.69860746  0.64955919  0.77794864    -0.58000
O2105       O  0.69418221  0.69048327  0.81867252    -0.56800
C2106       C  0.63046685  0.62161258  0.74096028     0.77000
O2107       O  0.71909693  0.71633527  0.78196901    -0.59200
O2108       O  0.70926142  0.66849163  0.73295003    -0.57600
O2109       O  0.67143069  0.70133626  0.72726536    -0.57600
O2110       O  0.63271301  0.62744793  0.76955132    -0.56800
O2111       O  0.62310345  0.95804444  0.77411547    -0.58000
C2112       C  0.68898244  0.55183345  0.76250924     0.74600
O2113       O  0.61463871  0.49564944  0.78601053    -0.59200
C2114       C  0.61516285  0.93421621  0.78206244     0.74600
C2115       C  0.70583710  0.49484800  0.80818862     0.77000
Cd2116     Cd  0.65971156  0.49825037  0.78552946     1.37500
O2117       O  0.67503383  0.53163871  0.74475301    -0.58000
O2118       O  0.70900938  0.51631160  0.79693834    -0.56800
C2119       C  0.62281298  0.98660767  0.87762945     0.77000
O2120       O  0.68129115  0.47646451  0.81394271    -0.59200
O2121       O  0.68927792  0.54679936  0.79071781    -0.57600
O2122       O  0.62159665  0.93114303  0.80915532    -0.57600
O2123       O  0.63030793  0.49482794  0.83067300    -0.56800
C2124       C  0.95149087  0.00313444  0.57579555     0.86300
C2125       C  0.95093703  0.97707351  0.58435003    -0.53900
C2126       C  0.46092456  0.96351921  0.56543199     0.09200
C2127       C  0.48040727  0.98744449  0.54448198     0.20200
C2128       C  0.50967192  0.51914140  0.69788021    -0.54700
C2129       C  0.53394135  0.52294879  0.68827401     0.09300
C2130       C  0.95201302  0.00376344  0.54026461    -0.54200
C2131       C  0.46120792  0.99017512  0.52067925     0.09900
H2132       H  0.93640558  0.96255017  0.60034112     0.14400
H2133       H  0.49632714  0.98486373  0.53408903     0.00200
H2134       H  0.51008825  0.53369015  0.71346341     0.14700
H2135       H  0.93745400  0.00599893  0.52629868     0.14500
C2136       C  0.49405321  0.52925683  0.83743252     0.86300
C2137       C  0.49065358  0.52733157  0.87236715    -0.53900
C2138       C  0.53291243  0.01417255  0.00179517     0.09200
C2139       C  0.52878527  0.99318421  0.97620200     0.20200
C2140       C  0.51911943  0.52632554  0.83293700    -0.54700
C2141       C  0.55322259  0.00897314  0.95375456     0.09300
C2142       C  0.00911338  0.01875746  0.95621710    -0.54200
C2143       C  0.00504820  0.99399411  0.96443145     0.09900
H2144       H  0.49055653  0.54294188  0.88576492     0.14400
H2145       H  0.52730492  0.97472933  0.98536127     0.00200
H2146       H  0.53677119  0.54037809  0.82007237     0.14700
H2147       H  0.99371606  0.02075590  0.94382326     0.14500
O2148       O  0.89490298  0.87235995  0.83151450    -0.58000
C2149       C  0.84829599  0.88265240  0.82906414     0.74600
O2150       O  0.83447643  0.80423975  0.87093262    -0.59200
C2151       C  0.90056272  0.85418133  0.83134743     0.74600
C2152       C  0.90388396  0.89463308  0.91803439     0.77000
Cd2153     Cd  0.86341727  0.85521066  0.87249272     1.37500
O2154       O  0.85792134  0.86846519  0.82153567    -0.58000
O2155       O  0.90318616  0.87299850  0.91210890    -0.56800
C2156       C  0.81125772  0.80165473  0.87298579     0.77000
O2157       O  0.88306708  0.89502218  0.90863358    -0.59200
O2158       O  0.84402439  0.88319661  0.85731799    -0.57600
O2159       O  0.88930228  0.83586024  0.85134031    -0.57600
O2160       O  0.81227398  0.82318776  0.88045426    -0.56800
C2161       C  0.92902606  0.91952903  0.93129653    -0.06300
C2162       C  0.94298009  0.91852016  0.95767056    -0.17400
C2163       C  0.96716673  0.94196737  0.96975165     0.10900
C2164       C  0.97883324  0.96729086  0.95431298    -0.06200
C2165       C  0.96476303  0.96750302  0.92740886    -0.17500
C2166       C  0.94044695  0.94458858  0.91619437     0.10900
S2167       S  0.98144496  0.93874253  0.00552792    -0.32400
S2168       S  0.92576727  0.94859988  0.88112078    -0.32400
H2169       H  0.92015493  0.92423900  0.86760082     0.28900
H2170       H  0.96078470  0.91186116  0.01174904     0.28900
H2171       H  0.93453584  0.89932248  0.96915268     0.19500
H2172       H  0.97315660  0.98558132  0.91379593     0.19500
C2173       C  0.46459592  0.99096313  0.48592853    -0.06300
C2174       C  0.53990863  0.52125916  0.59350693    -0.17400
C2175       C  0.50726868  0.52075821  0.94071286     0.10900
C2176       C  0.52935166  0.00921849  0.03609323    -0.06200
C2177       C  0.00335469  0.99327177  0.05291714    -0.17500
C2178       C  0.96063569  0.98177319  0.47250796     0.10900
S2179       S  0.53962885  0.54836511  0.92753673    -0.32400
S2180       S  0.93186791  0.94942110  0.48392877    -0.32400
H2181       H  0.93225951  0.95460500  0.51517169     0.28900
H2182       H  0.54114398  0.53416934  0.90252723     0.28900
H2183       H  0.55583457  0.53534110  0.60943596     0.19500
H2184       H  0.98682200  0.98518434  0.03586673     0.19500
C2185       C  0.57181839  0.00024031  0.94014774    -0.06300
C2186       C  0.56865481  0.52324226  0.84120699    -0.17400
C2187       C  0.59163369  0.52219252  0.83313246     0.10900
C2188       C  0.60708879  0.99081543  0.90250301    -0.06200
C2189       C  0.57947678  0.97030973  0.90774266    -0.17500
C2190       C  0.56200630  0.97455715  0.92628893     0.10900
S2191       S  0.62338039  0.55410137  0.82760619    -0.32400
S2192       S  0.52677622  0.94735341  0.93002559    -0.32400
H2193       H  0.52823696  0.92774266  0.91298983     0.28900
H2194       H  0.64129389  0.54500181  0.83368178     0.28900
H2195       H  0.57186991  0.54303991  0.84535167     0.19500
H2196       H  0.57108621  0.95104035  0.89610374     0.19500
C2197       C  0.73696160  0.73250088  0.83286002    -0.06300
C2198       C  0.75939231  0.73014094  0.84117937    -0.17400
C2199       C  0.78294241  0.75124576  0.85674640     0.10900
C2200       C  0.78463663  0.77592863  0.86376802    -0.06200
C2201       C  0.76119732  0.77731598  0.85724934    -0.16700
C2202       C  0.73759404  0.75603984  0.84216671     0.10900
S2203       S  0.81070823  0.74629040  0.86678913    -0.32400
S2204       S  0.70955605  0.76085856  0.83381206    -0.32400
H2205       H  0.68879329  0.73324780  0.83298319     0.28900
H2206       H  0.79801743  0.71939872  0.85618073     0.28900
H2207       H  0.75888483  0.71204630  0.83424898     0.19500
H2208       H  0.76167448  0.79572014  0.86254078     0.19500
C2209       C  0.56091394  0.54603325  0.70148481    -0.06300
C2210       C  0.57932184  0.56687838  0.68242386    -0.17400
C2211       C  0.60170759  0.59144752  0.69442177     0.10900
C2212       C  0.60671955  0.59570104  0.72670749    -0.06200
C2213       C  0.58870492  0.57427800  0.74566201    -0.17500
C2214       C  0.56638041  0.54978681  0.73354939     0.10900
S2215       S  0.62186792  0.61702291  0.66685283    -0.32400
S2216       S  0.54574854  0.52360019  0.76026664    -0.32400
H2217       H  0.54153340  0.50275616  0.74058568     0.28900
H2218       H  0.61882060  0.63683346  0.68125422     0.28900
H2219       H  0.57534368  0.56466995  0.65793879     0.19500
H2220       H  0.59209394  0.57645373  0.77023940     0.19500
C2221       C  0.70342552  0.58011317  0.75179358    -0.06300
C2222       C  0.72360991  0.60022662  0.77147549    -0.17400
C2223       C  0.73166659  0.62724798  0.76818889     0.10900
C2224       C  0.71923612  0.63422136  0.74494743    -0.06200
C2225       C  0.70378768  0.61538112  0.72164765    -0.17500
C2226       C  0.69500401  0.58802748  0.72514365     0.10900
S2227       S  0.75436761  0.65130954  0.79704322    -0.32400
S2228       S  0.67004414  0.56356986  0.69785333    -0.32400
H2229       H  0.66918624  0.58207603  0.67781749     0.28900
H2230       H  0.75995440  0.67443873  0.78059609     0.28900
H2231       H  0.73133230  0.59463592  0.79114662     0.19500
H2232       H  0.69466158  0.62108525  0.70354566     0.19500
C2233       C  0.94277109  0.85231059  0.75347690    -0.06300
C2234       C  0.95100544  0.87710543  0.76769874    -0.17400
C2235       C  0.93915201  0.87817072  0.79465442     0.10900
C2236       C  0.91798231  0.85389831  0.80748654    -0.06200
C2237       C  0.91070398  0.82900813  0.79421123    -0.17500
C2238       C  0.92311443  0.82793824  0.76758639     0.10900
S2239       S  0.95217968  0.91114987  0.81158893    -0.32400
S2240       S  0.91347412  0.79497806  0.75330618    -0.32400
H2241       H  0.94043927  0.80269550  0.74614948     0.28900
H2242       H  0.94799986  0.90212199  0.84200157     0.28900
H2243       H  0.96668454  0.89589752  0.75760091     0.19500
H2244       H  0.89467550  0.81029043  0.80408621     0.19500
C2245       C  0.55507605  0.87712044  0.71950798    -0.06300
C2246       C  0.58013147  0.89807801  0.70847335    -0.17400
C2247       C  0.60170413  0.91532908  0.72870466     0.10900
C2248       C  0.59792837  0.91168710  0.76059181    -0.06200
C2249       C  0.57445611  0.88853210  0.77136327    -0.17500
C2250       C  0.55313869  0.87095265  0.75109157     0.10900
S2251       S  0.63353604  0.94266019  0.71367561    -0.32400
S2252       S  0.52372379  0.84160530  0.76708513    -0.32400
H2253       H  0.51759158  0.82514610  0.74093645     0.28900
H2254       H  0.62624446  0.93659839  0.68249619     0.28900
H2255       H  0.58209465  0.90220652  0.68421163     0.19500
H2256       H  0.57183839  0.88511010  0.79575056     0.19500
C2257       C  0.47480406  0.89991864  0.59780519    -0.06300
C2258       C  0.95331181  0.90251374  0.59341220    -0.17400
C2259       C  0.95036536  0.92318540  0.58065037     0.10900
C2260       C  0.46506834  0.94059648  0.57436416    -0.06200
C2261       C  0.49189799  0.94616015  0.57973638    -0.17500
C2262       C  0.49697148  0.92634311  0.59083406     0.10900
S2263       S  0.91706479  0.91448323  0.56558847    -0.32400
S2264       S  0.53239103  0.93618848  0.59513651    -0.32400
H2265       H  0.52765352  0.91115336  0.58485344     0.28900
H2266       H  0.90268738  0.88689266  0.57315155     0.28900
H2267       H  0.93528033  0.88250206  0.59614859     0.19500
H2268       H  0.50926629  0.96639959  0.57591440     0.19500
C2269       C  0.96449338  0.72407592  0.71426840    -0.06300
C2270       C  0.98409627  0.73910374  0.69191110    -0.17400
C2271       C  0.98634104  0.76198446  0.67803113     0.10900
C2272       C  0.96877210  0.77094803  0.68651335    -0.06200
C2273       C  0.46024786  0.74980253  0.69484072    -0.17500
C2274       C  0.46262960  0.72883666  0.70759248     0.10900
S2275       S  0.01175761  0.77831696  0.64910576    -0.32400
S2276       S  0.44222434  0.71188320  0.74028870    -0.32400
H2277       H  0.43330098  0.68578637  0.72908991     0.28900
H2278       H  0.99459149  0.78237894  0.62929754     0.28900
H2279       H  0.99795612  0.73290820  0.68487847     0.19500
H2280       H  0.44745511  0.75554144  0.70614548     0.19500
C2281       C  0.58262580  0.70115467  0.71852829    -0.06300
C2282       C  0.59829084  0.71667625  0.74412950    -0.17400
C2283       C  0.62436233  0.72108326  0.75044551     0.10900
C2284       C  0.63478923  0.70971605  0.73089445    -0.06200
C2285       C  0.62159343  0.69883539  0.70257909    -0.17500
C2286       C  0.59554406  0.69455520  0.69596539     0.10900
S2287       S  0.64320169  0.73904155  0.78484323    -0.32400
S2288       S  0.57861650  0.67886011  0.65981737    -0.32400
H2289       H  0.60048038  0.67805971  0.64716706     0.28900
H2290       H  0.62612880  0.74860189  0.79256972     0.28900
H2291       H  0.58918524  0.72313214  0.76075395     0.19500
H2292       H  0.63017986  0.69082817  0.68722822     0.19500
C2293       C  0.49513740  0.55455533  0.82284816    -0.06300
C2294       C  0.51788302  0.57386913  0.80587617    -0.17400
C2295       C  0.51847831  0.59545191  0.79059626     0.10900
C2296       C  0.49578754  0.59878641  0.79134155    -0.06200
C2297       C  0.94292145  0.56760567  0.81912816    -0.17500
C2298       C  0.94494152  0.54666125  0.83347543     0.10900
S2299       S  0.54947826  0.61846417  0.77064640    -0.32400
S2300       S  0.91607474  0.52144475  0.85480542    -0.32400
H2301       H  0.89978059  0.53280385  0.85176167     0.28900
H2302       H  0.54862986  0.64172378  0.77669153     0.28900
H2303       H  0.53598040  0.57288105  0.80382082     0.19500
H2304       H  0.92390165  0.56726771  0.81979244     0.19500
C2305       C  0.72891702  0.49003086  0.80976920    -0.06300
C2306       C  0.72133073  0.97096336  0.76808271    -0.17400
C2307       C  0.74189960  0.97319113  0.74899032     0.10900
C2308       C  0.77047900  0.48143193  0.78997831    -0.06200
C2309       C  0.77735702  0.50689121  0.80123699    -0.17500
C2310       C  0.75693036  0.51137466  0.81128171     0.10900
S2311       S  0.73192131  0.94567520  0.72252249    -0.32400
S2312       S  0.76770293  0.54503246  0.82416566    -0.32400
H2313       H  0.74526414  0.53673978  0.84326532     0.28900
H2314       H  0.74712683  0.96256649  0.69828229     0.28900
H2315       H  0.70097478  0.95284615  0.76632335     0.19500
H2316       H  0.79839803  0.52383013  0.80009273     0.19500
C2317       C  0.83509197  0.93132819  0.76545567    -0.06300
C2318       C  0.85346354  0.92335453  0.75864310    -0.17400
C2319       C  0.85784566  0.90721807  0.77859879     0.10900
C2320       C  0.84306297  0.89821843  0.80606379    -0.06200
C2321       C  0.82354448  0.90509666  0.81204175    -0.17500
C2322       C  0.81946023  0.92166306  0.79216826     0.10900
S2323       S  0.88470367  0.90147513  0.76892195    -0.32400
S2324       S  0.79498087  0.93044941  0.80336060    -0.32400
H2325       H  0.80109212  0.95088471  0.78218112     0.28900
H2326       H  0.89902359  0.91221990  0.79692908     0.28900
H2327       H  0.86585026  0.93123817  0.73846971     0.19500
H2328       H  0.81188965  0.89812491  0.83278292     0.19500
C2329       C  0.89698110  0.59731346  0.68247008    -0.06300
C2330       C  0.90128844  0.57942059  0.66577508    -0.17400
C2331       C  0.87973348  0.55277736  0.66079764     0.10900
C2332       C  0.85379606  0.54446033  0.67246492    -0.06200
C2333       C  0.84821267  0.56395321  0.68180318    -0.17500
C2334       C  0.86976622  0.59059405  0.68699212     0.10900
S2335       S  0.88796081  0.52884788  0.64679048    -0.32400
S2336       S  0.86167154  0.61393367  0.70306285    -0.32400
H2337       H  0.88595078  0.63733955  0.69365472     0.28900
H2338       H  0.86060447  0.50805095  0.64031671     0.28900
H2339       H  0.92197644  0.58468528  0.66093344     0.19500
H2340       H  0.82796978  0.55765128  0.68985933     0.19500
C2341       C  0.92808470  0.00536458  0.59094694    -0.06300
C2342       C  0.95240848  0.50604770  0.71273339    -0.17400
C2343       C  0.92751557  0.50229587  0.72282436     0.10900
C2344       C  0.88927244  0.00732890  0.63047035    -0.06200
C2345       C  0.88188064  0.98406470  0.61283180    -0.17500
C2346       C  0.90035307  0.98326154  0.59236039     0.10900
S2347       S  0.92965539  0.52763354  0.74830126    -0.32400
S2348       S  0.88785320  0.95410337  0.56762603    -0.32400
H2349       H  0.85998414  0.94130204  0.57499887     0.28900
H2350       H  0.90994719  0.53046070  0.73184658     0.28900
H2351       H  0.97071814  0.52306429  0.72247847     0.19500
H2352       H  0.86168391  0.96615036  0.61553239     0.19500
loop_ 
_geom_bond_atom_site_label_1 
_geom_bond_atom_site_label_2 
_geom_bond_distance 
_geom_bond_site_symmetry_2 
_ccdc_geom_bond_type 
O1            C4   1.264       .  A
O1         Cd594   2.387       .  S
C2           O11   1.270       .  A
C2            O7   1.266       .  A
C2          C274   1.465       .  S
O3          C597   1.264       .  A
O3           Cd6   2.457       .  S
C4           O12   1.268       .  A
C4          C259   1.472       .  S
C5          O598   1.267   1_545  A
C5          O596   1.275       .  A
C5          C250   1.484       .  S
Cd6          O13   2.555   1_565  S
Cd6          O11   2.469   1_565  S
Cd6           O7   2.366   1_565  S
Cd6         O589   2.380       .  S
Cd6         O600   2.455       .  S
Cd6         O598   2.430       .  S
Cd6         O596   2.526   1_565  S
O8          C593   1.272       .  A
O8         Cd594   2.599       .  S
C9          O591   1.268       .  A
C9          O601   1.265       .  A
C9          C286   1.528       .  S
O10         C593   1.261       .  A
O10        Cd594   2.510       .  S
O12        Cd594   2.469       .  S
O13         C597   1.276   1_545  A
O14          C17   1.269       .  A
O14       Cd1195   2.455       .  S
C15          O24   1.268       .  A
C15          O20   1.273       .  A
C15         C271   1.474       .  S
O16        C1198   1.279       .  A
O16         Cd19   2.611       .  S
C17          O25   1.270       .  A
C17         C223   1.491       .  S
C18          O23   1.280       .  A
C18        O1197   1.268       .  A
C18         C211   1.514       .  S
Cd19         O26   2.495       .  S
Cd19         O24   2.381       .  S
Cd19         O20   2.468       .  S
Cd19         O23   2.549       .  S
Cd19       O1190   2.461       .  S
Cd19       O1201   2.418       .  S
Cd19       O1197   2.474       .  S
O21        C1194   1.266       .  A
O21       Cd1195   2.473       .  S
C22        O1192   1.275       .  A
C22        O1202   1.266       .  A
C22         C238   1.507       .  S
O25       Cd1195   2.447       .  S
O26        C1198   1.267       .  A
O27          C30   1.263       .  A
O27         Cd32   2.403       .  S
C28          O37   1.270       .  A
C28          O33   1.263       .  A
C28         C187   1.484       .  S
O29          C35   1.277       .  A
O29         Cd32   2.587       .  S
C30          O38   1.267       .  A
C30         C175   1.457       .  S
C31        O1212   1.270       .  A
C31        O1210   1.265   1_655  A
C31         C199   1.516       .  S
Cd32         O39   2.450       .  S
Cd32         O38   2.455       .  S
Cd32         O36   2.552       .  S
Cd32         O34   2.521       .  S
Cd32       O1213   2.476       .  S
Cd32       O1209   2.397       .  S
O33       Cd1208   2.435   1_455  S
O34        C1207   1.265       .  A
C35          O39   1.261       .  A
C35         C214   1.508       .  S
O36        C1207   1.273       .  A
O37       Cd1208   2.471   1_455  S
O40          C43   1.268       .  A
O40         Cd45   2.388       .  S
C41          O50   1.272       .  A
C41          O46   1.268       .  A
C41         C166   1.467       .  S
O42          C48   1.263       .  A
O42         Cd45   2.449       .  S
C43          O51   1.273       .  A
C43         C226   1.468       .  S
C44          O49   1.269       .  A
C44          O47   1.276       .  A
C44         C139   1.493       .  S
Cd45         O52   2.568       .  S
Cd45         O51   2.458       .  S
Cd45         O50   2.485       .  S
Cd45         O46   2.359       .  S
Cd45         O49   2.458       .  S
Cd45         O47   2.536       .  S
C48          O52   1.279       .  A
C48         C154   1.511       .  S
O53          C56   1.262       .  A
O53        Cd646   2.397       .  S
C54          O63   1.266       .  A
C54          O59   1.268       .  A
C54         C163   1.478       .  S
O55         C649   1.263   1_565  A
O55         Cd58   2.521   1_565  S
C56          O64   1.270       .  A
C56         C190   1.470       .  S
C57          O62   1.270   1_545  A
C57          O60   1.264       .  A
C57         C247   1.492       .  S
Cd58         O65   2.563       .  S
Cd58         O63   2.393       .  S
Cd58         O59   2.496       .  S
Cd58         O62   2.489   1_545  S
Cd58         O60   2.468       .  S
Cd58        O641   2.457   1_545  S
Cd58        O652   2.403   1_545  S
C61         O643   1.266       .  A
C61         O653   1.268       .  A
C61         C130   1.532       .  S
O64        Cd646   2.505       .  S
O65         C649   1.269       .  A
C66          C67   1.550       .  S
C66          C72   1.550       .  S
C66        C1834   1.546       .  S
C66         C283   1.580       .  S
C67          H74   1.084       .  S
C67        C1244   1.377       .  D
C68          C69   1.559       .  S
C68        C1243   1.381       .  D
C68         C202   1.526       .  S
C69          C73   1.555       .  S
C69         C659   1.547       .  S
C69          H75   1.110       .  S
C70        C1830   1.543   1_445  S
C70          H76   1.076       .  S
C70          C71   1.365       .  D
C71         C657   1.560   1_545  S
C71         C151   1.510       .  S
C72          H77   1.085       .  S
C72        C1249   1.380       .  D
C73        C1248   1.378       .  D
C73         C115   1.517   1_554  S
C78          C79   1.552   1_455  S
C78          C82   1.548       .  S
C78        C1848   1.539   1_455  S
C78         C235   1.579       .  S
C79          H86   1.085       .  S
C79         C668   1.381       .  D
C80          C81   1.584       .  S
C80         C667   1.366       .  D
C80         C118   1.527       .  S
C81          C83   1.575       .  S
C81        C1261   1.564       .  S
C81          H87   1.107       .  S
C82          H88   1.070       .  S
C82         C671   1.367       .  D
C83         C670   1.377       .  D
C83         C127   1.543       .  S
C84        C1842   1.537       .  S
C84          H89   1.087       .  S
C84          C85   1.362       .  D
C85        C1257   1.563       .  S
C85         C106   1.506       .  S
O90          C93   1.263       .  A
O90         Cd95   2.416       .  S
C91         O100   1.270       .  A
C91          O96   1.259       .  A
C91         C262   1.467       .  S
O92          C98   1.264       .  A
O92         Cd95   2.509       .  S
C93         O101   1.270       .  A
C93         C178   1.478       .  S
C94          O99   1.269       .  A
C94          O97   1.261       .  A
C94         C103   1.518       .  S
Cd95        O102   2.519       .  S
Cd95        O101   2.465       .  S
Cd95        O100   2.502       .  S
Cd95         O96   2.396       .  S
Cd95         O99   2.586       .  S
Cd95         O97   2.509       .  S
C98         O102   1.266       .  A
C98         C142   1.509       .  S
C103        C104   1.413       .  A
C103        C108   1.426       .  A
C104        C105   1.418       .  A
C104        H113   1.082       .  S
C105        C106   1.412       .  A
C105        S109   1.804       .  S
C106        C107   1.402       .  A
C107        C108   1.408       .  A
C107        H114   1.083       .  S
C108        S110   1.801       .  S
S109        H112   1.406       .  S
S110        H111   1.408       .  S
C115        C704   1.407       .  A
C115       C1296   1.421       .  A
C116        C703   1.414       .  A
C116        C411   1.423       .  A
C116        H125   1.081       .  S
C117        C410   1.416       .  A
C117        C706   1.421   1_455  A
C117        S121   1.802       .  S
C118        C705   1.424       .  A
C118       C1295   1.404       .  A
C119       C1294   1.406       .  A
C119        C414   1.419       .  A
C119        H126   1.082       .  S
C120       C1291   1.424       .  A
C120        C413   1.420       .  A
C120        S122   1.801       .  S
S121        H124   1.406       .  S
S122        H123   1.403   1_556  S
C127        C132   1.424       .  A
C127        C716   1.416       .  A
C128        C129   1.406       .  A
C128        C715   1.413       .  A
C128        H137   1.084       .  S
C129        C718   1.413       .  A
C129        S133   1.799       .  S
C130        C131   1.412       .  A
C130        C717   1.421       .  A
C131        C132   1.424       .  A
C131        H138   1.082       .  S
C132        S134   1.800       .  S
S133        H136   1.407       .  S
S134        H135   1.406       .  S
C139        C140   1.404       .  A
C139        C144   1.412       .  A
C140        C141   1.413       .  A
C140        H149   1.083       .  S
C141        C142   1.423       .  A
C141        S145   1.808       .  S
C142        C143   1.411       .  A
C143        C144   1.408       .  A
C143        H150   1.083       .  S
C144        S146   1.802       .  S
S145        H148   1.407       .  S
S146        H147   1.405       .  S
C151        C152   1.400       .  A
C151        C156   1.427       .  A
C152        C153   1.408       .  A
C152        H161   1.082       .  S
C153        C154   1.427       .  A
C153        S157   1.799       .  S
C154        C155   1.404       .  A
C155        C156   1.409       .  A
C155        H162   1.084       .  S
C156        S158   1.806       .  S
S157        H160   1.402       .  S
S158        H159   1.401       .  S
C163        C164   1.406       .  A
C163        C168   1.413       .  A
C164        C165   1.393       .  A
C164        H173   1.084       .  S
C165        C166   1.404       .  A
C165        S169   1.800       .  S
C166        C167   1.404       .  A
C167        C168   1.408       .  A
C167        H174   1.082       .  S
C168        S170   1.805       .  S
S169        H172   1.408       .  S
S170        H171   1.407       .  S
C175        C176   1.399       .  A
C175        C180   1.405       .  A
C176        C177   1.396       .  A
C176        H185   1.084       .  S
C177        C178   1.414       .  A
C177        S181   1.801       .  S
C178        C179   1.409       .  A
C179        C180   1.396       .  A
C179        H186   1.084       .  S
C180        S182   1.805       .  S
S181        H184   1.407       .  S
S182        H183   1.407       .  S
C187        C188   1.404       .  A
C187        C192   1.421       .  A
C188        C189   1.399       .  A
C188        H197   1.082       .  S
C189        C190   1.410       .  A
C189        S193   1.809       .  S
C190        C191   1.399       .  A
C191        C192   1.400       .  A
C191        H198   1.084       .  S
C192        S194   1.803       .  S
S193        H196   1.407       .  S
S194        H195   1.408       .  S
C199        C204   1.420       .  A
C199       C1376   1.409       .  A
C200        C201   1.414       .  A
C200       C1375   1.406       .  A
C200        H209   1.082       .  S
C201       C1378   1.422       .  A
C201        S205   1.805       .  S
C202        C203   1.410       .  A
C202       C1377   1.423       .  A
C203        C204   1.414       .  A
C203        H210   1.083   1_655  S
C204        S206   1.801   1_655  S
S205        H208   1.406       .  S
S206        H207   1.408       .  S
C211        C212   1.416       .  A
C211       C1392   1.417       .  A
C212        C213   1.414       .  A
C212        H221   1.083       .  S
C213        C214   1.414       .  A
C213        S217   1.801       .  S
C214       C1391   1.412       .  A
C215        C216   1.411       .  A
C215       C1390   1.412       .  A
C215        H222   1.083       .  S
C216       C1387   1.417       .  A
C216        S218   1.798       .  S
S217        H220   1.407       .  S
S218        H219   1.407       .  S
C223        C224   1.409       .  A
C223        C228   1.420       .  A
C224        C225   1.398       .  A
C224        H233   1.083       .  S
C225        C226   1.406       .  A
C225        S229   1.803       .  S
C226        C227   1.400       .  A
C227        C228   1.404       .  A
C227        H234   1.083       .  S
C228        S230   1.809       .  S
S229        H232   1.408       .  S
S230        H231   1.407       .  S
C235        C236   1.421       .  A
C235       C1416   1.428   1_455  A
C236        C237   1.406       .  A
C236        H245   1.063       .  S
C237        C238   1.410       .  A
C237        S241   1.808       .  S
C238       C1415   1.408   1_455  A
C239        C240   1.429       .  A
C239       C1414   1.411       .  A
C239        H246   1.082       .  S
C240       C1411   1.430       .  A
C240        S242   1.807       .  S
S241        H244   1.407       .  S
S242        H243   1.406       .  S
C247        C252   1.419       .  A
C247        C836   1.406   1_545  A
C248        C249   1.415       .  A
C248        C835   1.408       .  A
C248        H257   1.083       .  S
C249        C838   1.428       .  A
C249        S253   1.801       .  S
C250        C251   1.404       .  A
C250        C837   1.410   1_545  A
C251        C252   1.409       .  A
C251        H258   1.084       .  S
C252        S254   1.803       .  S
S253        H256   1.407       .  S
S254        H255   1.407       .  S
C259        C260   1.406       .  A
C259        C264   1.410       .  A
C260        C261   1.394       .  A
C260        H269   1.084       .  S
C261        C262   1.407       .  A
C261        S265   1.802       .  S
C262        C263   1.407       .  A
C263        C264   1.397       .  A
C263        H270   1.084       .  S
C264        S266   1.800       .  S
S265        H268   1.407       .  S
S266        H267   1.407       .  S
C271        C272   1.401       .  A
C271        C276   1.414       .  A
C272        C273   1.399       .  A
C272        H281   1.084       .  S
C273        C274   1.413       .  A
C273        S277   1.801       .  S
C274        C275   1.400       .  A
C275        C276   1.396       .  A
C275        H282   1.084       .  S
C276        S278   1.804       .  S
S277        H280   1.407       .  S
S278        H279   1.408       .  S
C283        C288   1.426       .  A
C283        C872   1.417       .  A
C284        C285   1.411       .  A
C284        C871   1.422       .  A
C284        H293   1.075       .  S
C285        C874   1.411   1_545  A
C285        S289   1.799       .  S
C286        C287   1.412       .  A
C286        C873   1.420       .  A
C287        C288   1.424       .  A
C287        H294   1.082       .  S
C288        S290   1.804       .  S
S289        H292   1.408       .  S
S290        H291   1.406       .  S
O295        C298   1.269       .  A
O295       Cd888   2.398       .  S
C296        O305   1.269       .  A
C296        O301   1.265       .  A
C296        C568   1.482       .  S
O297        C891   1.272   1_565  A
O297       Cd300   2.609   1_565  S
C298        O306   1.266       .  A
C298        C553   1.470       .  S
C299        O892   1.265       .  A
C299        O890   1.271   1_565  A
C299        C544   1.512   1_565  S
Cd300       O883   2.396   1_545  S
Cd300       O307   2.488       .  S
Cd300       O894   2.475   1_545  S
Cd300       O305   2.470       .  S
Cd300       O301   2.421       .  S
Cd300       O892   2.510   1_545  S
Cd300       O890   2.551       .  S
O302        C887   1.270       .  A
O302       Cd888   2.586       .  S
C303        O885   1.265       .  A
C303        O895   1.268       .  A
C303        C580   1.517       .  S
O304        C887   1.264       .  A
O304       Cd888   2.510       .  S
O306       Cd888   2.453       .  S
O307        C891   1.261       .  A
O308        C311   1.261       .  A
O308      Cd1489   2.406       .  S
C309        O318   1.267       .  A
C309        O314   1.261       .  A
C309        C565   1.465       .  S
O310       C1492   1.273       .  A
O310       Cd313   2.601       .  S
C311        O319   1.271       .  A
C311        C517   1.481       .  S
C312        O317   1.267       .  A
C312       O1491   1.265       .  A
C312        C505   1.511       .  S
Cd313      O1484   2.425       .  S
Cd313       O320   2.481       .  S
Cd313      O1495   2.441       .  S
Cd313       O318   2.479       .  S
Cd313       O314   2.416       .  S
Cd313       O317   2.520       .  S
Cd313      O1491   2.517       .  S
O315       C1488   1.269       .  A
O315      Cd1489   2.542       .  S
C316       O1486   1.263       .  A
C316       O1496   1.270       .  A
C316        C532   1.517       .  S
O319      Cd1489   2.477       .  S
O320       C1492   1.261       .  A
O321        C324   1.267       .  A
O321       Cd326   2.372       .  S
C322        O331   1.272       .  A
C322        O327   1.269       .  A
C322        C481   1.466       .  S
O323        C329   1.270       .  A
O323       Cd326   2.485       .  S
C324        O332   1.273       .  A
C324        C469   1.470       .  S
C325       O1506   1.264       .  A
C325       O1504   1.279       .  A
C325        C493   1.511       .  S
Cd326       O333   2.521       .  S
Cd326       O332   2.463       .  S
Cd326      O1507   2.475       .  S
Cd326      O1503   2.343       .  S
Cd326       O330   2.465       .  S
Cd326       O328   2.546       .  S
O327      Cd1502   2.359       .  S
O328       C1501   1.278       .  A
C329        O333   1.274       .  A
C329        C508   1.494       .  S
O330       C1501   1.264       .  A
O331      Cd1502   2.469       .  S
O334        C337   1.263       .  A
O334       Cd339   2.388       .  S
C335        O344   1.268       .  A
C335        O340   1.264       .  A
C335        C460   1.473       .  S
O336        C342   1.272       .  A
O336       Cd339   2.570       .  S
C337        O345   1.269       .  A
C337        C520   1.464       .  S
C338        O343   1.262       .  A
C338        O341   1.269       .  A
C338        C433   1.501       .  S
Cd339       O346   2.448       .  S
Cd339       O345   2.487       .  S
Cd339       O344   2.456       .  S
Cd339       O340   2.422       .  S
Cd339       O343   2.446       .  S
Cd339       O341   2.525       .  S
C342        O346   1.262       .  A
C342        C448   1.507       .  S
O347        C350   1.276       .  A
O347       Cd940   2.459       .  S
C348        O357   1.269       .  A
C348        O353   1.262       .  A
C348        C457   1.461       .  S
O349        C943   1.274   1_545  A
O349       Cd352   2.624       .  S
C350        O358   1.273       .  A
C350        C484   1.468       .  S
C351        O356   1.273   1_545  A
C351        O354   1.264       .  A
C351        C541   1.514       .  S
Cd352       O935   2.389   1_545  S
Cd352       O359   2.495   1_545  S
Cd352       O946   2.482   1_545  S
Cd352       O357   2.485       .  S
Cd352       O353   2.373       .  S
Cd352       O356   2.557   1_545  S
Cd352       O354   2.503       .  S
C355        O937   1.273       .  A
C355        O947   1.281       .  A
C355        C424   1.534       .  S
O358       Cd940   2.342       .  S
O359        C943   1.262       .  A
C360        C361   1.539       .  S
C360        C366   1.549       .  S
C360       C2128   1.548       .  S
C360        C577   1.574       .  S
C361        H368   1.084       .  S
C361       C1538   1.371       .  D
C362        C363   1.565       .  S
C362       C1537   1.363   1_455  D
C362        C496   1.506       .  S
C363        C367   1.565       .  S
C363        C953   1.562       .  S
C363        H369   1.110       .  S
C364       C2124   1.544       .  S
C364        H370   1.083       .  S
C364        C365   1.360   1_655  D
C365        C951   1.551   1_445  S
C365        C445   1.498       .  S
C366        H371   1.086       .  S
C366       C1543   1.376       .  D
C367       C1542   1.379   1_455  D
C367        C409   1.531       .  S
C372        C373   1.540   1_556  S
C372       C2142   1.546       .  S
C372        C376   1.546       .  S
C372        C529   1.574       .  S
C373        H380   1.086       .  S
C373        C962   1.373       .  D
C374        C375   1.562       .  S
C374        C961   1.372       .  D
C374        C412   1.514       .  S
C375       C1555   1.553       .  S
C375        C377   1.560       .  S
C375        H381   1.110       .  S
C376        H382   1.082       .  S
C376        C965   1.362       .  D
C377        C964   1.374       .  D
C377        C421   1.532   1_655  S
C378       C2136   1.535       .  S
C378        H383   1.087       .  S
C378        C379   1.366       .  D
C379       C1551   1.569       .  S
C379        C400   1.513       .  S
O384        C387   1.273       .  A
O384       Cd389   2.472       .  S
C385        O394   1.264       .  A
C385        O390   1.271       .  A
C385        C556   1.475       .  S
O386        C392   1.275       .  A
O386       Cd389   2.509       .  S
C387        O395   1.267       .  A
C387        C472   1.485       .  S
C388        O393   1.273       .  A
C388        O391   1.268       .  A
C388        C397   1.513       .  S
Cd389       O396   2.448       .  S
Cd389       O395   2.406       .  S
Cd389       O394   2.394       .  S
Cd389       O390   2.502       .  S
Cd389       O393   2.571       .  S
Cd389       O391   2.508       .  S
C392        O396   1.264       .  A
C392        C436   1.495       .  S
C397        C398   1.409       .  A
C397        C402   1.418       .  A
C398        C399   1.420       .  A
C398        H407   1.082       .  S
C399        C400   1.416       .  A
C399        S403   1.804       .  S
C400        C401   1.407       .  A
C401        C402   1.412       .  A
C401        H408   1.083       .  S
C402        S404   1.800       .  S
S403        H406   1.407       .  S
S404        H405   1.407       .  S
C409        C998   1.410       .  A
C409       C1590   1.425   1_455  A
C410        C997   1.408   1_455  A
C410        H419   1.084       .  S
C411       C1000   1.419       .  A
C411        S415   1.802       .  S
C412        C999   1.418       .  A
C412       C1589   1.409       .  A
C413       C1588   1.408       .  A
C413        H420   1.084       .  S
C414       C1585   1.428       .  A
C414        S416   1.800       .  S
S415        H418   1.406       .  S
S416        H417   1.406       .  S
C421       C1010   1.411       .  A
C421        C426   1.422       .  A
C422       C1009   1.412       .  A
C422        C423   1.422       .  A
C422        H431   1.083       .  S
C423       C1012   1.423   1_545  A
C423        S427   1.798       .  S
C424       C1011   1.426       .  A
C424        C425   1.412       .  A
C425        C426   1.415       .  A
C425        H432   1.081       .  S
C426        S428   1.809       .  S
S427        H430   1.407       .  S
S428        H429   1.405       .  S
C433        C434   1.411       .  A
C433        C438   1.418       .  A
C434        C435   1.401       .  A
C434        H443   1.083       .  S
C435        C436   1.411       .  A
C435        S439   1.799       .  S
C436        C437   1.409       .  A
C437        C438   1.412       .  A
C437        H444   1.083       .  S
C438        S440   1.807       .  S
S439        H442   1.407       .  S
S440        H441   1.407       .  S
C445        C446   1.408       .  A
C445        C450   1.410       .  A
C446        C447   1.416       .  A
C446        H455   1.083       .  S
C447        C448   1.419       .  A
C447        S451   1.806       .  S
C448        C449   1.410       .  A
C449        C450   1.405       .  A
C449        H456   1.082       .  S
C450        S452   1.805       .  S
S451        H454   1.407       .  S
S452        H453   1.406       .  S
C457        C458   1.397       .  A
C457        C462   1.409       .  A
C458        C459   1.398       .  A
C458        H467   1.084       .  S
C459        C460   1.417       .  A
C459        S463   1.803       .  S
C460        C461   1.402       .  A
C461        C462   1.397       .  A
C461        H468   1.083       .  S
C462        S464   1.810       .  S
S463        H466   1.408       .  S
S464        H465   1.406       .  S
C469        C470   1.400       .  A
C469        C474   1.413       .  A
C470        C471   1.397       .  A
C470        H479   1.084       .  S
C471        C472   1.418       .  A
C471        S475   1.803       .  S
C472        C473   1.405       .  A
C473        C474   1.400       .  A
C473        H480   1.084       .  S
C474        S476   1.801       .  S
S475        H478   1.408       .  S
S476        H477   1.407       .  S
C481        C482   1.409       .  A
C481        C486   1.404       .  A
C482        C483   1.408       .  A
C482        H491   1.083       .  S
C483        C484   1.407       .  A
C483        S487   1.804       .  S
C484        C485   1.404       .  A
C485        C486   1.393       .  A
C485        H492   1.085       .  S
C486        S488   1.800       .  S
S487        H490   1.407       .  S
S488        H489   1.408       .  S
C493       C1670   1.416       .  A
C493        C498   1.417       .  A
C494       C1669   1.416       .  A
C494        C495   1.415       .  A
C494        H503   1.082       .  S
C495       C1672   1.412       .  A
C495        S499   1.805       .  S
C496       C1671   1.408       .  A
C496        C497   1.411       .  A
C497        C498   1.409       .  A
C497        H504   1.083       .  S
C498        S500   1.798       .  S
S499        H502   1.406       .  S
S500        H501   1.407       .  S
C505        C506   1.412       .  A
C505       C1686   1.423       .  A
C506        C507   1.409       .  A
C506        H515   1.083       .  S
C507        C508   1.412       .  A
C507        S511   1.803       .  S
C508       C1685   1.405       .  A
C509       C1684   1.403       .  A
C509        C510   1.409       .  A
C509        H516   1.084   1_455  S
C510       C1681   1.423       .  A
C510        S512   1.801   1_455  S
S511        H514   1.405       .  S
S512        H513   1.408       .  S
C517        C518   1.403       .  A
C517        C522   1.422       .  A
C518        C519   1.394       .  A
C518        H527   1.084       .  S
C519        C520   1.409       .  A
C519        S523   1.804       .  S
C520        C521   1.397       .  A
C521        C522   1.402       .  A
C521        H528   1.083       .  S
C522        S524   1.810       .  S
S523        H526   1.407       .  S
S524        H525   1.407       .  S
C529        C530   1.417       .  A
C529       C1710   1.426       .  A
C530        C531   1.410       .  A
C530        H539   1.077       .  S
C531        C532   1.417       .  A
C531        S535   1.803       .  S
C532       C1709   1.409       .  A
C533       C1708   1.406       .  A
C533        C534   1.421       .  A
C533        H540   1.082       .  S
C534       C1705   1.430       .  A
C534        S536   1.809       .  S
S535        H538   1.408       .  S
S536        H537   1.406       .  S
C541       C1130   1.410   1_545  A
C541        C546   1.422       .  A
C542       C1129   1.410       .  A
C542        C543   1.419       .  A
C542        H551   1.083       .  S
C543       C1132   1.422       .  A
C543        S547   1.800       .  S
C544       C1131   1.420   1_545  A
C544        C545   1.409       .  A
C545        C546   1.412       .  A
C545        H552   1.084       .  S
C546        S548   1.801       .  S
S547        H550   1.407       .  S
S548        H549   1.407       .  S
C553        C554   1.399       .  A
C553        C558   1.414       .  A
C554        C555   1.396       .  A
C554        H563   1.084       .  S
C555        C556   1.415       .  A
C555        S559   1.801       .  S
C556        C557   1.400       .  A
C557        C558   1.401       .  A
C557        H564   1.084       .  S
C558        S560   1.799       .  S
S559        H562   1.407       .  S
S560        H561   1.408       .  S
C565        C566   1.402       .  A
C565        C570   1.408       .  A
C566        C567   1.399       .  A
C566        H575   1.084       .  S
C567        C568   1.415       .  A
C567        S571   1.802       .  S
C568        C569   1.408       .  A
C569        C570   1.396       .  A
C569        H576   1.084       .  S
C570        S572   1.805       .  S
S571        H574   1.408       .  S
S572        H573   1.407       .  S
C577       C1166   1.420       .  A
C577        C582   1.425       .  A
C578       C1165   1.418   1_545  A
C578        C579   1.408       .  A
C578        H587   1.077       .  S
C579       C1168   1.418       .  A
C579        S583   1.805       .  S
C580       C1167   1.416       .  A
C580        C581   1.409       .  A
C581        C582   1.416       .  A
C581        H588   1.082       .  S
C582        S584   1.807       .  S
S583        H586   1.407       .  S
S584        H585   1.403       .  S
O589        C592   1.269       .  A
C590        O599   1.269       .  A
C590        O595   1.264       .  A
C590        C862   1.471       .  S
O591       Cd594   2.594       .  S
C592        O600   1.271       .  A
C592        C847   1.472       .  S
C593        C838   1.526       .  S
Cd594       O601   2.548       .  S
Cd594       O599   2.480       .  S
Cd594       O595   2.419       .  S
C597        C874   1.506       .  S
O602        C605   1.262       .  A
O602      Cd1783   2.438       .  S
C603        O612   1.269       .  A
C603        O608   1.264       .  A
C603        C859   1.482       .  S
O604       C1786   1.270       .  A
O604       Cd607   2.575       .  S
C605        O613   1.269       .  A
C605        C811   1.482       .  S
C606        O611   1.259       .  A
C606       O1785   1.271       .  A
C606        C799   1.512       .  S
Cd607      O1778   2.399       .  S
Cd607       O614   2.511       .  S
Cd607      O1789   2.489       .  S
Cd607       O612   2.488       .  S
Cd607       O608   2.413       .  S
Cd607       O611   2.465       .  S
Cd607      O1785   2.586       .  S
O609       C1782   1.270       .  A
O609      Cd1783   2.560       .  S
C610       O1780   1.270   1_455  A
C610       O1790   1.260       .  A
C610        C826   1.508       .  S
O613      Cd1783   2.479       .  S
O614       C1786   1.262       .  A
O615        C618   1.272       .  A
O615       Cd620   2.370       .  S
C616        O625   1.274       .  A
C616        O621   1.269       .  A
C616        C775   1.465       .  S
O617        C623   1.272       .  A
O617       Cd620   2.450       .  S
C618        O626   1.277       .  A
C618        C763   1.470       .  S
C619       O1800   1.267       .  A
C619       O1798   1.281       .  A
C619        C787   1.510       .  S
Cd620       O627   2.519       .  S
Cd620       O626   2.450       .  S
Cd620      O1801   2.472       .  S
Cd620      O1797   2.329       .  S
Cd620       O624   2.425       .  S
Cd620       O622   2.538       .  S
O621      Cd1796   2.357       .  S
O622       C1795   1.280       .  A
C623        O627   1.277       .  A
C623        C802   1.495       .  S
O624       C1795   1.268       .  A
O625      Cd1796   2.461       .  S
O628        C631   1.263       .  A
O628       Cd633   2.418       .  S
C629        O638   1.268       .  A
C629        O634   1.264       .  A
C629        C754   1.455       .  S
O630        C636   1.274       .  A
O630       Cd633   2.591       .  S
C631        O639   1.270       .  A
C631        C814   1.474       .  S
C632        O637   1.260       .  A
C632        O635   1.273       .  A
C632        C727   1.492       .  S
Cd633       O640   2.424       .  S
Cd633       O639   2.491       .  S
Cd633       O638   2.446       .  S
Cd633       O634   2.381       .  S
Cd633       O637   2.438       .  S
Cd633       O635   2.548       .  S
C636        O640   1.262       .  A
C636        C742   1.504       .  S
O641        C644   1.269       .  A
C642        O651   1.268       .  A
C642        O647   1.263       .  A
C642        C751   1.475       .  S
O643       Cd646   2.582       .  S
C644        O652   1.266       .  A
C644        C778   1.479       .  S
C645        O650   1.271       .  A
C645        O648   1.262       .  A
C645        C835   1.526       .  S
Cd646       O653   2.596       .  S
Cd646       O651   2.438       .  S
Cd646       O647   2.420       .  S
Cd646       O650   2.585       .  S
Cd646       O648   2.528       .  S
C649        C718   1.507       .  S
C654        C655   1.539   1_545  S
C654        C660   1.552       .  S
C654       C1246   1.544       .  S
C654        C871   1.570       .  S
C655        H662   1.085       .  S
C655       C1832   1.368       .  D
C656        C657   1.554       .  S
C656       C1831   1.367   1_455  D
C656        C790   1.505       .  S
C657        C661   1.573       .  S
C657        H663   1.110       .  S
C658       C1242   1.543       .  S
C658        H664   1.084       .  S
C658        C659   1.360       .  D
C659        C739   1.497   1_655  S
C660        H665   1.085       .  S
C660       C1837   1.381       .  D
C661       C1836   1.379   1_465  D
C661        C703   1.540   1_565  S
C666        C667   1.530       .  S
C666       C1260   1.533       .  S
C666        C670   1.554       .  S
C666        C823   1.564       .  S
C667        H674   1.086       .  S
C668        C669   1.561   1_545  S
C668        C706   1.526       .  S
C669       C1849   1.564       .  S
C669        C671   1.557   1_665  S
C669        H675   1.109       .  S
C670        H676   1.081       .  S
C671        C715   1.519       .  S
C672       C1254   1.539       .  S
C672        H677   1.087       .  S
C672        C673   1.373   1_545  D
C673       C1845   1.565       .  S
C673        C694   1.524       .  S
O678        C681   1.278       .  A
O678       Cd683   2.412       .  S
C679        O688   1.275       .  A
C679        O684   1.278       .  A
C679        C850   1.480       .  S
O680        C686   1.284       .  A
O680       Cd683   2.489       .  S
C681        O689   1.275       .  A
C681        C766   1.485       .  S
C682        O687   1.282       .  A
C682        O685   1.273       .  A
C682        C691   1.522       .  S
Cd683       O690   2.420       .  S
Cd683       O689   2.400       .  S
Cd683       O688   2.399       .  S
Cd683       O684   2.382       .  S
Cd683       O687   2.550       .  S
Cd683       O685   2.461       .  S
C686        O690   1.274       .  A
C686        C730   1.502       .  S
C691        C692   1.413       .  A
C691        C696   1.424       .  A
C692        C693   1.423       .  A
C692        H701   1.082       .  S
C693        C694   1.418       .  A
C693        S697   1.802       .  S
C694        C695   1.408       .  A
C695        C696   1.408       .  A
C695        H702   1.084       .  S
C696        S698   1.801       .  S
S697        H700   1.406       .  S
S698        H699   1.408       .  S
C703       C1884   1.430   1_445  A
C704        C999   1.413       .  A
C704        H713   1.083   1_655  S
C705        C998   1.421       .  A
C705        S709   1.803       .  S
C706       C1883   1.409   1_545  A
C707       C1882   1.408       .  A
C707       C1002   1.419       .  A
C707        H714   1.083       .  S
C708       C1879   1.426   1_565  A
C708       C1001   1.412       .  A
C708        S710   1.797       .  S
S709        H712   1.406       .  S
S710        H711   1.400       .  S
C715        C720   1.415   1_545  A
C716        C717   1.419       .  A
C716        H725   1.083       .  S
C717        S721   1.800       .  S
C718        C719   1.411   1_545  A
C719        C720   1.418       .  A
C719        H726   1.081       .  S
C720        S722   1.802       .  S
S721        H724   1.408       .  S
S722        H723   1.407       .  S
C727        C728   1.408       .  A
C727        C732   1.409       .  A
C728        C729   1.404       .  A
C728        H737   1.084       .  S
C729        C730   1.416       .  A
C729        S733   1.801       .  S
C730        C731   1.415       .  A
C731        C732   1.409       .  A
C731        H738   1.083       .  S
C732        S734   1.801       .  S
S733        H736   1.407       .  S
S734        H735   1.407       .  S
C739        C740   1.408       .  A
C739        C744   1.410       .  A
C740        C741   1.416       .  A
C740        H749   1.083       .  S
C741        C742   1.419       .  A
C741        S745   1.799       .  S
C742        C743   1.409       .  A
C743        C744   1.402       .  A
C743        H750   1.083       .  S
C744        S746   1.808       .  S
S745        H748   1.406       .  S
S746        H747   1.407       .  S
C751        C752   1.404       .  A
C751        C756   1.420       .  A
C752        C753   1.395       .  A
C752        H761   1.082       .  S
C753        C754   1.405       .  A
C753        S757   1.809       .  S
C754        C755   1.396       .  A
C755        C756   1.399       .  A
C755        H762   1.083       .  S
C756        S758   1.811       .  S
S757        H760   1.407       .  S
S758        H759   1.407       .  S
C763        C764   1.401       .  A
C763        C768   1.410       .  A
C764        C765   1.398       .  A
C764        H773   1.084       .  S
C765        C766   1.417       .  A
C765        S769   1.802       .  S
C766        C767   1.406       .  A
C767        C768   1.398       .  A
C767        H774   1.083       .  S
C768        S770   1.800       .  S
S769        H772   1.408       .  S
S770        H771   1.406       .  S
C775        C776   1.402       .  A
C775        C780   1.406       .  A
C776        C777   1.404       .  A
C776        H785   1.083       .  S
C777        C778   1.414       .  A
C777        S781   1.806       .  S
C778        C779   1.404       .  A
C779        C780   1.391       .  A
C779        H786   1.084       .  S
C780        S782   1.798       .  S
S781        H784   1.407       .  S
S782        H783   1.408       .  S
C787       C1964   1.412       .  A
C787        C792   1.415       .  A
C788       C1963   1.402       .  A
C788        C789   1.404       .  A
C788        H797   1.082       .  S
C789       C1966   1.416       .  A
C789        S793   1.804       .  S
C790       C1965   1.410       .  A
C790        C791   1.407       .  A
C791        C792   1.411       .  A
C791        H798   1.081       .  S
C792        S794   1.794       .  S
S793        H796   1.407       .  S
S794        H795   1.407       .  S
C799        C800   1.413       .  A
C799       C1980   1.424       .  A
C800        C801   1.419       .  A
C800        H809   1.082       .  S
C801        C802   1.414       .  A
C801        S805   1.805       .  S
C802       C1979   1.399       .  A
C803       C1978   1.402   1_655  A
C803        C804   1.408       .  A
C803        H810   1.084       .  S
C804       C1975   1.423   1_655  A
C804        S806   1.802       .  S
S805        H808   1.407       .  S
S806        H807   1.408       .  S
C811        C812   1.403       .  A
C811        C816   1.418       .  A
C812        C813   1.397       .  A
C812        H821   1.084       .  S
C813        C814   1.413       .  A
C813        S817   1.805       .  S
C814        C815   1.401       .  A
C815        C816   1.405       .  A
C815        H822   1.083       .  S
C816        S818   1.808       .  S
S817        H820   1.407       .  S
S818        H819   1.407       .  S
C823        C824   1.412       .  A
C823       C2004   1.429       .  A
C824        C825   1.408       .  A
C824        H833   1.077       .  S
C825        C826   1.418       .  A
C825        S829   1.803       .  S
C826       C2003   1.405       .  A
C827       C2002   1.407       .  A
C827        C828   1.417       .  A
C827        H834   1.082       .  S
C828       C1999   1.427       .  A
C828        S830   1.810       .  S
S829        H832   1.408       .  S
S830        H831   1.406       .  S
C835        C840   1.428       .  A
C836        C837   1.405       .  A
C836        H845   1.083       .  S
C837        S841   1.808       .  S
C838        C839   1.409       .  A
C839        C840   1.417       .  A
C839        H846   1.083       .  S
C840        S842   1.800       .  S
S841        H844   1.407       .  S
S842        H843   1.407       .  S
C847        C848   1.403       .  A
C847        C852   1.409       .  A
C848        C849   1.396       .  A
C848        H857   1.084       .  S
C849        C850   1.415       .  A
C849        S853   1.801       .  S
C850        C851   1.405       .  A
C851        C852   1.396       .  A
C851        H858   1.084       .  S
C852        S854   1.800       .  S
S853        H856   1.408       .  S
S854        H855   1.408       .  S
C859        C860   1.406       .  A
C859        C864   1.417       .  A
C860        C861   1.395       .  A
C860        H869   1.084       .  S
C861        C862   1.411       .  A
C861        S865   1.805       .  S
C862        C863   1.402       .  A
C863        C864   1.401       .  A
C863        H870   1.084       .  S
C864        S866   1.800       .  S
S865        H868   1.407       .  S
S866        H867   1.403       .  S
C871        C876   1.425   1_545  A
C872        C873   1.414       .  A
C872        H881   1.080       .  S
C873        S877   1.801       .  S
C874        C875   1.405       .  A
C875        C876   1.412       .  A
C875        H882   1.082       .  S
C876        S878   1.804       .  S
S877        H880   1.408       .  S
S878        H879   1.407       .  S
O883        C886   1.262       .  A
C884        O893   1.268       .  A
C884        O889   1.266       .  A
C884       C1156   1.455       .  S
O885       Cd888   2.528       .  S
C886        O894   1.267       .  A
C886       C1141   1.463       .  S
C887       C1132   1.512       .  S
Cd888       O895   2.547       .  S
Cd888       O893   2.470       .  S
Cd888       O889   2.361       .  S
C891       C1168   1.519       .  S
O896        C899   1.273       .  A
O896      Cd2077   2.397   1_455  S
C897        O906   1.268       .  A
C897        O902   1.269       .  A
C897       C1153   1.464       .  S
O898       C2080   1.279       .  A
O898       Cd901   2.604       .  S
C899        O907   1.273       .  A
C899       C1105   1.472       .  S
C900        O905   1.280       .  A
C900       O2079   1.266       .  A
C900       C1093   1.509       .  S
Cd901      O2072   2.405       .  S
Cd901       O908   2.466       .  S
Cd901      O2083   2.430       .  S
Cd901       O906   2.383       .  S
Cd901       O902   2.439       .  S
Cd901       O905   2.557       .  S
Cd901      O2079   2.443       .  S
O903       C2076   1.268       .  A
O903      Cd2077   2.425       .  S
C904       O2074   1.282       .  A
C904       O2084   1.268       .  A
C904       C1120   1.515       .  S
O907      Cd2077   2.391   1_455  S
O908       C2080   1.265       .  A
O909        C912   1.263       .  A
O909       Cd914   2.384       .  S
C910        O919   1.269       .  A
C910        O915   1.263       .  A
C910       C1069   1.460       .  S
O911        C917   1.269       .  A
O911       Cd914   2.531       .  S
C912        O920   1.269       .  A
C912       C1057   1.468       .  S
C913       O2094   1.266       .  A
C913       O2092   1.261   1_655  A
C913       C1081   1.512       .  S
Cd914       O921   2.493       .  S
Cd914       O920   2.477       .  S
Cd914      O2095   2.487       .  S
Cd914      O2091   2.411       .  S
Cd914       O918   2.569       .  S
Cd914       O916   2.531       .  S
O915      Cd2090   2.391   1_455  S
O916       C2089   1.264       .  A
C917        O921   1.266       .  A
C917       C1096   1.507       .  S
O918       C2089   1.270       .  A
O919      Cd2090   2.487   1_455  S
O922        C925   1.276       .  A
O922       Cd927   2.409       .  S
C923        O932   1.274       .  A
C923        O928   1.279       .  A
C923       C1048   1.475       .  S
O924        C930   1.280       .  A
O924       Cd927   2.536       .  S
C925        O933   1.273       .  A
C925       C1108   1.477       .  S
C926        O931   1.280       .  A
C926        O929   1.274       .  A
C926       C1021   1.507       .  S
Cd927       O934   2.474       .  S
Cd927       O933   2.396       .  S
Cd927       O932   2.342       .  S
Cd927       O928   2.406       .  S
Cd927       O931   2.479       .  S
Cd927       O929   2.464       .  S
C930        O934   1.271       .  A
C930       C1036   1.499       .  S
O935        C938   1.263       .  A
C936        O945   1.273       .  A
C936        O941   1.274       .  A
C936       C1045   1.462       .  S
O937       Cd940   2.510       .  S
C938        O946   1.271       .  A
C938       C1072   1.480       .  S
C939        O944   1.284       .  A
C939        O942   1.270       .  A
C939       C1129   1.510       .  S
Cd940       O947   2.598       .  S
Cd940       O945   2.414       .  S
Cd940       O941   2.367       .  S
Cd940       O944   2.568       .  S
Cd940       O942   2.443       .  S
C943       C1012   1.528       .  S
C948        C949   1.550       .  S
C948        C954   1.547       .  S
C948       C1540   1.540   1_565  S
C948       C1165   1.578       .  S
C949        H956   1.085       .  S
C949       C2126   1.377       .  D
C950        C951   1.558       .  S
C950       C2125   1.374       .  D
C950       C1084   1.518       .  S
C951        C955   1.554   1_565  S
C951        H957   1.110   1_655  S
C952       C1536   1.544   1_455  S
C952        H958   1.077       .  S
C952        C953   1.368       .  D
C953       C1033   1.517       .  S
C954        H959   1.084       .  S
C954       C2131   1.383       .  D
C955       C2130   1.382       .  D
C955        C997   1.520       .  S
C960        C961   1.542       .  S
C960       C1554   1.545       .  S
C960        C964   1.557       .  S
C960       C1117   1.582       .  S
C961        H968   1.086       .  S
C962        C963   1.573   1_544  S
C962       C1000   1.522       .  S
C963       C2143   1.564       .  S
C963        C965   1.567   1_565  S
C963        H969   1.103       .  S
C964        H970   1.079   1_655  S
C965       C1009   1.520       .  S
C966       C1548   1.539       .  S
C966        H971   1.086       .  S
C966        C967   1.375   1_545  D
C967       C2139   1.561       .  S
C967        C988   1.524       .  S
O972        C975   1.262       .  A
O972       Cd977   2.391       .  S
C973        O982   1.268       .  A
C973        O978   1.263       .  A
C973       C1144   1.481       .  S
O974        C980   1.270       .  A
O974       Cd977   2.537       .  S
C975        O983   1.269       .  A
C975       C1060   1.471       .  S
C976        O981   1.267       .  A
C976        O979   1.263       .  A
C976        C985   1.495       .  S
Cd977       O984   2.469       .  S
Cd977       O983   2.486       .  S
Cd977       O982   2.484       .  S
Cd977       O978   2.389       .  S
Cd977       O981   2.560       .  S
Cd977       O979   2.487       .  S
C980        O984   1.265       .  A
C980       C1024   1.500       .  S
C985        C986   1.406       .  A
C985        C990   1.411       .  A
C986        C987   1.424       .  A
C986        H995   1.082       .  S
C987        C988   1.426       .  A
C987        S991   1.800   1_556  S
C988        C989   1.409       .  A
C989        C990   1.398       .  A
C989        H996   1.083       .  S
C990        S992   1.806       .  S
S991        H994   1.406       .  S
S992        H993   1.407       .  S
C997       C2178   1.423   1_545  A
C998       H1007   1.084       .  S
C999       S1003   1.802   1_655  S
C1000      C2177   1.403   1_545  A
C1001      C2176   1.402   1_565  A
C1001      H1008   1.080       .  S
C1002      C2173   1.428       .  A
C1002      S1004   1.803       .  S
S1003      H1006   1.405       .  S
S1004      H1005   1.407       .  S
C1009      C1014   1.414   1_545  A
C1010      C1011   1.424       .  A
C1010      H1019   1.083       .  S
C1011      S1015   1.797       .  S
C1012      C1013   1.413       .  A
C1013      C1014   1.414       .  A
C1013      H1020   1.082       .  S
C1014      S1016   1.804       .  S
S1015      H1018   1.407       .  S
S1016      H1017   1.406       .  S
C1021      C1022   1.414       .  A
C1021      C1026   1.417       .  A
C1022      C1023   1.413       .  A
C1022      H1031   1.083       .  S
C1023      C1024   1.415       .  A
C1023      S1027   1.801       .  S
C1024      C1025   1.407       .  A
C1025      C1026   1.404       .  A
C1025      H1032   1.083       .  S
C1026      S1028   1.799       .  S
S1027      H1030   1.407       .  S
S1028      H1029   1.408       .  S
C1033      C1034   1.412       .  A
C1033      C1038   1.419       .  A
C1034      C1035   1.408       .  A
C1034      H1043   1.084       .  S
C1035      C1036   1.415       .  A
C1035      S1039   1.808       .  S
C1036      C1037   1.410       .  A
C1037      C1038   1.416       .  A
C1037      H1044   1.084       .  S
C1038      S1040   1.798       .  S
S1039      H1042   1.402       .  S
S1040      H1041   1.399       .  S
C1045      C1046   1.402       .  A
C1045      C1050   1.406       .  A
C1046      C1047   1.396       .  A
C1046      H1055   1.084       .  S
C1047      C1048   1.412       .  A
C1047      S1051   1.801       .  S
C1048      C1049   1.406       .  A
C1049      C1050   1.394       .  A
C1049      H1056   1.082       .  S
C1050      S1052   1.806       .  S
S1051      H1054   1.408       .  S
S1052      H1053   1.407       .  S
C1057      C1058   1.403       .  A
C1057      C1062   1.412       .  A
C1058      C1059   1.400       .  A
C1058      H1067   1.084       .  S
C1059      C1060   1.414       .  A
C1059      S1063   1.801       .  S
C1060      C1061   1.402       .  A
C1061      C1062   1.390       .  A
C1061      H1068   1.084       .  S
C1062      S1064   1.805       .  S
S1063      H1066   1.406       .  S
S1064      H1065   1.408       .  S
C1069      C1070   1.396       .  A
C1069      C1074   1.408       .  A
C1070      C1071   1.398       .  A
C1070      H1079   1.083       .  S
C1071      C1072   1.420       .  A
C1071      S1075   1.811       .  S
C1072      C1073   1.406       .  A
C1073      C1074   1.399       .  A
C1073      H1080   1.084       .  S
C1074      S1076   1.803       .  S
S1075      H1078   1.407       .  S
S1076      H1077   1.405       .  S
C1081      C2258   1.406       .  A
C1081      C1086   1.424   1_655  A
C1082      C2257   1.409       .  A
C1082      C1083   1.417       .  A
C1082      H1091   1.082       .  S
C1083      C2260   1.421       .  A
C1083      S1087   1.807       .  S
C1084      C2259   1.421       .  A
C1084      C1085   1.405       .  A
C1085      C1086   1.411   1_655  A
C1085      H1092   1.082   1_655  S
C1086      S1088   1.800       .  S
S1087      H1090   1.406       .  S
S1088      H1089   1.407       .  S
C1093      C1094   1.413       .  A
C1093      C2274   1.416       .  A
C1094      C1095   1.409       .  A
C1094      H1103   1.083       .  S
C1095      C1096   1.416       .  A
C1095      S1099   1.802       .  S
C1096      C2273   1.412       .  A
C1097      C2272   1.413       .  A
C1097      C1098   1.412       .  A
C1097      H1104   1.083       .  S
C1098      C2269   1.417       .  A
C1098      S1100   1.798       .  S
S1099      H1102   1.407       .  S
S1100      H1101   1.407       .  S
C1105      C1106   1.403       .  A
C1105      C1110   1.410       .  A
C1106      C1107   1.393       .  A
C1106      H1115   1.084       .  S
C1107      C1108   1.412       .  A
C1107      S1111   1.802       .  S
C1108      C1109   1.407       .  A
C1109      C1110   1.401       .  A
C1109      H1116   1.082       .  S
C1110      S1112   1.809       .  S
S1111      H1114   1.407       .  S
S1112      H1113   1.407       .  S
C1117      C1118   1.416       .  A
C1117      C2298   1.433       .  A
C1118      C1119   1.409       .  A
C1118      H1127   1.075   1_655  S
C1119      C1120   1.415       .  A
C1119      S1123   1.804   1_655  S
C1120      C2297   1.406       .  A
C1121      C2296   1.407       .  A
C1121      C1122   1.424       .  A
C1121      H1128   1.082       .  S
C1122      C2293   1.431       .  A
C1122      S1124   1.809       .  S
S1123      H1126   1.406       .  S
S1124      H1125   1.406       .  S
C1129      C1134   1.419       .  A
C1130      C1131   1.413       .  A
C1130      H1139   1.084       .  S
C1131      S1135   1.802       .  S
C1132      C1133   1.406       .  A
C1133      C1134   1.407       .  A
C1133      H1140   1.084       .  S
C1134      S1136   1.802       .  S
S1135      H1138   1.408       .  S
S1136      H1137   1.407       .  S
C1141      C1142   1.401       .  A
C1141      C1146   1.407       .  A
C1142      C1143   1.400       .  A
C1142      H1151   1.084       .  S
C1143      C1144   1.417       .  A
C1143      S1147   1.800       .  S
C1144      C1145   1.408       .  A
C1145      C1146   1.390       .  A
C1145      H1152   1.084       .  S
C1146      S1148   1.806       .  S
S1147      H1150   1.408       .  S
S1148      H1149   1.407       .  S
C1153      C1154   1.400       .  A
C1153      C1158   1.412       .  A
C1154      C1155   1.395       .  A
C1154      H1163   1.084       .  S
C1155      C1156   1.411       .  A
C1155      S1159   1.802       .  S
C1156      C1157   1.397       .  A
C1157      C1158   1.394       .  A
C1157      H1164   1.084       .  S
C1158      S1160   1.804       .  S
S1159      H1162   1.404       .  S
S1160      H1161   1.407       .  S
C1165      C1170   1.425       .  A
C1166      C1167   1.416       .  A
C1166      H1175   1.071       .  S
C1167      S1171   1.809       .  S
C1168      C1169   1.411   1_545  A
C1169      C1170   1.425       .  A
C1169      H1176   1.082       .  S
C1170      S1172   1.805       .  S
S1171      H1174   1.406       .  S
S1172      H1173   1.406       .  S
O1177      C1180   1.263       .  A
O1177     Cd1770   2.380       .  S
C1178      O1187   1.268       .  A
C1178      O1183   1.267       .  A
C1178      C1450   1.464       .  S
O1179      C1773   1.260       .  A
O1179     Cd1182   2.467       .  S
C1180      O1188   1.268       .  A
C1180      C1435   1.469       .  S
C1181      O1774   1.267       .  A
C1181      O1772   1.272   1_545  A
C1181      C1426   1.496       .  S
Cd1182     O1765   2.371       .  S
Cd1182     O1189   2.565   1_565  S
Cd1182     O1776   2.443       .  S
Cd1182     O1187   2.468   1_565  S
Cd1182     O1183   2.377   1_565  S
Cd1182     O1774   2.478   1_565  S
Cd1182     O1772   2.539       .  S
O1184      C1769   1.270       .  A
O1184     Cd1770   2.562       .  S
C1185      O1767   1.268       .  A
C1185      O1777   1.265       .  A
C1185      C1462   1.527       .  S
O1186      C1769   1.264       .  A
O1186     Cd1770   2.516       .  S
O1188     Cd1770   2.472       .  S
O1189      C1773   1.274   1_545  A
O1190      C1193   1.271       .  A
C1191      O1200   1.265       .  A
C1191      O1196   1.271       .  A
C1191      C1447   1.469       .  S
O1192     Cd1195   2.584       .  S
C1193      O1201   1.270       .  A
C1193      C1399   1.488       .  S
C1194      O1199   1.276   1_455  A
C1194      C1387   1.510   1_455  S
Cd1195     O1202   2.485       .  S
Cd1195     O1200   2.368   1_455  S
Cd1195     O1196   2.493   1_455  S
Cd1195     O1199   2.545   1_455  S
C1198      C1414   1.523       .  S
O1203      C1206   1.264       .  A
O1203     Cd1208   2.385       .  S
C1204      O1213   1.270       .  A
C1204      O1209   1.263       .  A
C1204      C1363   1.471       .  S
O1205      C1211   1.270   1_455  A
O1205     Cd1208   2.541   1_455  S
C1206      O1214   1.269       .  A
C1206      C1351   1.460       .  S
C1207      C1375   1.515       .  S
Cd1208     O1215   2.507       .  S
Cd1208     O1214   2.462       .  S
Cd1208     O1212   2.552       .  S
Cd1208     O1210   2.521   1_655  S
C1211      O1215   1.265       .  A
C1211      C1390   1.511       .  S
O1216      C1219   1.269       .  A
O1216     Cd1221   2.374       .  S
C1217      O1226   1.274       .  A
C1217      O1222   1.269       .  A
C1217      C1342   1.463       .  S
O1218      C1224   1.263       .  A
O1218     Cd1221   2.424       .  S
C1219      O1227   1.274       .  A
C1219      C1402   1.468       .  S
C1220      O1225   1.270       .  A
C1220      O1223   1.277       .  A
C1220      C1315   1.489       .  S
Cd1221     O1228   2.565       .  S
Cd1221     O1227   2.462       .  S
Cd1221     O1226   2.454       .  S
Cd1221     O1222   2.352       .  S
Cd1221     O1225   2.451       .  S
Cd1221     O1223   2.518       .  S
C1224      O1228   1.281       .  A
C1224      C1330   1.508       .  S
O1229      C1232   1.264       .  A
O1229     Cd1822   2.379       .  S
C1230      O1239   1.268       .  A
C1230      O1235   1.266       .  A
C1230      C1339   1.474       .  S
O1231      C1825   1.273       .  A
O1231     Cd1234   2.615       .  S
C1232      O1240   1.270       .  A
C1232      C1366   1.462       .  S
C1233      O1238   1.271   1_545  A
C1233      O1236   1.264       .  A
C1233      C1423   1.508       .  S
Cd1234     O1817   2.451   1_545  S
Cd1234     O1241   2.508   1_545  S
Cd1234     O1828   2.426   1_545  S
Cd1234     O1239   2.417       .  S
Cd1234     O1235   2.463       .  S
Cd1234     O1238   2.532   1_545  S
Cd1234     O1236   2.475       .  S
C1237      O1819   1.264       .  A
C1237      O1829   1.270       .  A
C1237      C1306   1.523       .  S
O1240     Cd1822   2.485       .  S
O1241      C1825   1.261   1_565  A
C1242      C1243   1.553       .  S
C1242      C1248   1.548       .  S
C1242      C1459   1.579       .  S
C1243      H1250   1.084       .  S
C1244      C1245   1.558       .  S
C1244      C1378   1.522       .  S
C1245      C1249   1.561       .  S
C1245      C1835   1.557       .  S
C1245      H1251   1.110       .  S
C1246      H1252   1.080       .  S
C1246      C1247   1.362       .  D
C1247      C1833   1.555       .  S
C1247      C1327   1.498       .  S
C1248      H1253   1.085       .  S
C1249      C1291   1.526   1_554  S
C1254      C1255   1.554       .  S
C1254      C1258   1.550       .  S
C1254      C1411   1.581       .  S
C1255      H1262   1.085       .  S
C1255      C1844   1.379       .  D
C1256      C1257   1.571       .  S
C1256      C1843   1.372       .  D
C1256      C1294   1.530       .  S
C1257      C1259   1.570       .  S
C1257      H1263   1.106       .  S
C1258      H1264   1.083       .  S
C1258      C1847   1.364       .  D
C1259      C1846   1.378       .  D
C1259      C1303   1.536       .  S
C1260      H1265   1.086   1_455  S
C1260      C1261   1.369       .  D
C1261      C1282   1.523   1_455  S
O1266      C1269   1.264       .  A
O1266     Cd1271   2.420       .  S
C1267      O1276   1.266       .  A
C1267      O1272   1.261       .  A
C1267      C1438   1.478       .  S
O1268      C1274   1.266       .  A
O1268     Cd1271   2.483       .  S
C1269      O1277   1.269       .  A
C1269      C1354   1.471       .  S
C1270      O1275   1.273       .  A
C1270      O1273   1.261       .  A
C1270      C1279   1.506       .  S
Cd1271     O1278   2.507       .  S
Cd1271     O1277   2.441       .  S
Cd1271     O1276   2.468       .  S
Cd1271     O1272   2.408       .  S
Cd1271     O1275   2.586       .  S
Cd1271     O1273   2.465       .  S
C1274      O1278   1.269       .  A
C1274      C1318   1.505       .  S
C1279      C1280   1.409       .  A
C1279      C1284   1.418       .  A
C1280      C1281   1.422       .  A
C1280      H1289   1.082       .  S
C1281      C1282   1.420       .  A
C1281      S1285   1.798       .  S
C1282      C1283   1.410       .  A
C1283      C1284   1.400       .  A
C1283      H1290   1.084       .  S
C1284      S1286   1.804       .  S
S1285      H1288   1.406       .  S
S1286      H1287   1.408       .  S
C1291      C1880   1.407       .  A
C1292      C1879   1.413       .  A
C1292      C1587   1.425       .  A
C1292      H1301   1.083       .  S
C1293      C1586   1.416       .  A
C1293      C1882   1.418   1_545  A
C1293      S1297   1.796       .  S
C1294      C1881   1.424       .  A
C1295      C1590   1.415   1_455  A
C1295      H1302   1.078   1_455  S
C1296      C1589   1.417       .  A
C1296      S1298   1.803       .  S
S1297      H1300   1.404       .  S
S1298      H1299   1.406   1_556  S
C1303      C1892   1.416       .  A
C1303      C1308   1.423       .  A
C1304      C1891   1.411   1_545  A
C1304      C1305   1.414       .  A
C1304      H1313   1.080       .  S
C1305      C1894   1.418   1_545  A
C1305      S1309   1.800       .  S
C1306      C1893   1.418       .  A
C1306      C1307   1.411       .  A
C1307      C1308   1.420       .  A
C1307      H1314   1.082       .  S
C1308      S1310   1.801       .  S
S1309      H1312   1.406       .  S
S1310      H1311   1.406       .  S
C1315      C1316   1.403       .  A
C1315      C1320   1.413       .  A
C1316      C1317   1.407       .  A
C1316      H1325   1.084       .  S
C1317      C1318   1.420       .  A
C1317      S1321   1.801       .  S
C1318      C1319   1.411       .  A
C1319      C1320   1.409       .  A
C1319      H1326   1.083       .  S
C1320      S1322   1.804       .  S
S1321      H1324   1.407       .  S
S1322      H1323   1.405       .  S
C1327      C1328   1.399       .  A
C1327      C1332   1.423       .  A
C1328      C1329   1.405       .  A
C1328      H1337   1.084       .  S
C1329      C1330   1.425       .  A
C1329      S1333   1.802       .  S
C1330      C1331   1.406       .  A
C1331      C1332   1.412       .  A
C1331      H1338   1.083       .  S
C1332      S1334   1.808       .  S
S1333      H1336   1.408       .  S
S1334      H1335   1.398       .  S
C1339      C1340   1.404       .  A
C1339      C1344   1.413       .  A
C1340      C1341   1.394       .  A
C1340      H1349   1.084       .  S
C1341      C1342   1.405       .  A
C1341      S1345   1.801       .  S
C1342      C1343   1.405       .  A
C1343      C1344   1.404       .  A
C1343      H1350   1.083       .  S
C1344      S1346   1.809       .  S
S1345      H1348   1.408       .  S
S1346      H1347   1.407       .  S
C1351      C1352   1.399       .  A
C1351      C1356   1.410       .  A
C1352      C1353   1.396       .  A
C1352      H1361   1.084       .  S
C1353      C1354   1.414       .  A
C1353      S1357   1.802       .  S
C1354      C1355   1.404       .  A
C1355      C1356   1.394       .  A
C1355      H1362   1.084       .  S
C1356      S1358   1.806       .  S
S1357      H1360   1.408       .  S
S1358      H1359   1.408       .  S
C1363      C1364   1.399       .  A
C1363      C1368   1.417       .  A
C1364      C1365   1.399       .  A
C1364      H1373   1.083       .  S
C1365      C1366   1.409       .  A
C1365      S1369   1.807       .  S
C1366      C1367   1.397       .  A
C1367      C1368   1.398       .  A
C1367      H1374   1.084       .  S
C1368      S1370   1.804       .  S
S1369      H1372   1.406       .  S
S1370      H1371   1.408       .  S
C1375      C1380   1.422       .  A
C1376      C1377   1.417       .  A
C1376      H1385   1.082       .  S
C1377      S1381   1.806       .  S
C1378      C1379   1.408       .  A
C1379      C1380   1.415       .  A
C1379      H1386   1.083       .  S
C1380      S1382   1.801       .  S
S1381      H1384   1.406       .  S
S1382      H1383   1.407       .  S
C1387      C1388   1.411   1_655  A
C1388      C1389   1.410       .  A
C1388      H1397   1.083       .  S
C1389      C1390   1.417   1_455  A
C1389      S1393   1.801       .  S
C1391      C1392   1.409       .  A
C1391      H1398   1.084       .  S
C1392      S1394   1.800       .  S
S1393      H1396   1.407   1_455  S
S1394      H1395   1.408       .  S
C1399      C1400   1.408       .  A
C1399      C1404   1.419       .  A
C1400      C1401   1.395       .  A
C1400      H1409   1.083       .  S
C1401      C1402   1.406       .  A
C1401      S1405   1.803       .  S
C1402      C1403   1.401       .  A
C1403      C1404   1.405       .  A
C1403      H1410   1.083       .  S
C1404      S1406   1.807       .  S
S1405      H1408   1.407       .  S
S1406      H1407   1.407       .  S
C1411      C1412   1.418       .  A
C1412      C1413   1.409       .  A
C1412      H1421   1.078       .  S
C1413      C1414   1.418       .  A
C1413      S1417   1.805       .  S
C1415      C1416   1.425       .  A
C1415      H1422   1.082       .  S
C1416      S1418   1.807       .  S
S1417      H1420   1.407       .  S
S1418      H1419   1.406       .  S
C1423      C2012   1.410   1_545  A
C1423      C1428   1.423       .  A
C1424      C2011   1.408       .  A
C1424      C1425   1.413       .  A
C1424      H1433   1.084       .  S
C1425      C2014   1.425       .  A
C1425      S1429   1.800       .  S
C1426      C2013   1.415   1_545  A
C1426      C1427   1.403       .  A
C1427      C1428   1.407       .  A
C1427      H1434   1.084       .  S
C1428      S1430   1.802       .  S
S1429      H1432   1.407       .  S
S1430      H1431   1.408       .  S
C1435      C1436   1.404       .  A
C1435      C1440   1.407       .  A
C1436      C1437   1.392       .  A
C1436      H1445   1.085       .  S
C1437      C1438   1.413       .  A
C1437      S1441   1.801       .  S
C1438      C1439   1.410       .  A
C1439      C1440   1.396       .  A
C1439      H1446   1.084       .  S
C1440      S1442   1.800       .  S
S1441      H1444   1.407       .  S
S1442      H1443   1.407       .  S
C1447      C1448   1.400       .  A
C1447      C1452   1.413       .  A
C1448      C1449   1.400       .  A
C1448      H1457   1.084       .  S
C1449      C1450   1.415       .  A
C1449      S1453   1.802       .  S
C1450      C1451   1.398       .  A
C1451      C1452   1.395       .  A
C1451      H1458   1.084       .  S
C1452      S1454   1.805       .  S
S1453      H1456   1.406       .  S
S1454      H1455   1.408       .  S
C1459      C2048   1.418       .  A
C1459      C1464   1.424       .  A
C1460      C2047   1.421   1_545  A
C1460      C1461   1.409       .  A
C1460      H1469   1.071       .  S
C1461      C2050   1.413   1_545  A
C1461      S1465   1.800       .  S
C1462      C2049   1.419       .  A
C1462      C1463   1.414       .  A
C1463      C1464   1.426       .  A
C1463      H1470   1.082       .  S
C1464      S1466   1.804       .  S
S1465      H1468   1.408       .  S
S1466      H1467   1.407       .  S
O1471      C1474   1.270       .  A
O1471     Cd2064   2.394       .  S
C1472      O1481   1.269       .  A
C1472      O1477   1.266       .  A
C1472      C1744   1.480       .  S
O1473      C2067   1.267   1_565  A
O1473     Cd1476   2.603       .  S
C1474      O1482   1.265       .  A
C1474      C1729   1.460       .  S
C1475      O2068   1.265       .  A
C1475      O2066   1.268   1_565  A
C1475      C1720   1.515       .  S
Cd1476     O2059   2.416       .  S
Cd1476     O1483   2.538   1_565  S
Cd1476     O2070   2.493       .  S
Cd1476     O1481   2.488   1_565  S
Cd1476     O1477   2.429   1_565  S
Cd1476     O2068   2.526       .  S
Cd1476     O2066   2.562   1_565  S
O1478      C2063   1.273       .  A
O1478     Cd2064   2.543       .  S
C1479      O2061   1.262       .  A
C1479      O2071   1.275       .  A
C1479      C1756   1.499       .  S
O1480      C2063   1.263       .  A
O1480     Cd2064   2.420       .  S
O1482     Cd2064   2.422       .  S
O1483      C2067   1.262       .  A
O1484      C1487   1.265       .  A
C1485      O1494   1.270       .  A
C1485      O1490   1.262       .  A
C1485      C1741   1.476       .  S
O1486     Cd1489   2.515       .  S
C1487      O1495   1.269       .  A
C1487      C1693   1.470       .  S
C1488      O1493   1.265       .  A
C1488      C1681   1.513       .  S
Cd1489     O1496   2.587       .  S
Cd1489     O1494   2.508   1_455  S
Cd1489     O1490   2.390   1_455  S
Cd1489     O1493   2.496       .  S
C1492      C1708   1.510       .  S
O1497      C1500   1.267       .  A
O1497     Cd1502   2.356   1_655  S
C1498      O1507   1.273       .  A
C1498      O1503   1.268       .  A
C1498      C1657   1.465       .  S
O1499      C1505   1.270       .  A
O1499     Cd1502   2.490       .  S
C1500      O1508   1.273       .  A
C1500      C1645   1.462       .  S
C1501      C1669   1.513       .  S
Cd1502     O1509   2.526       .  S
Cd1502     O1508   2.465   1_455  S
Cd1502     O1506   2.433       .  S
Cd1502     O1504   2.563       .  S
C1505      O1509   1.274       .  A
C1505      C1684   1.495       .  S
O1510      C1513   1.262       .  A
O1510     Cd1515   2.383       .  S
C1511      O1520   1.270       .  A
C1511      O1516   1.261       .  A
C1511      C1636   1.467       .  S
O1512      C1518   1.270       .  A
O1512     Cd1515   2.547       .  S
C1513      O1521   1.271       .  A
C1513      C1696   1.469       .  S
C1514      O1519   1.273       .  A
C1514      O1517   1.259       .  A
C1514      C1609   1.486       .  S
Cd1515     O1522   2.434       .  S
Cd1515     O1521   2.488       .  S
Cd1515     O1520   2.468       .  S
Cd1515     O1516   2.358       .  S
Cd1515     O1519   2.540       .  S
Cd1515     O1517   2.426       .  S
C1518      O1522   1.264       .  A
C1518      C1624   1.488       .  S
O1523      C1526   1.266       .  A
O1523     Cd2116   2.496       .  S
C1524      O1533   1.265       .  A
C1524      O1529   1.263   1_545  A
C1524      C1633   1.458       .  S
O1525      C2119   1.269   1_545  A
O1525     Cd1528   2.577   1_545  S
C1526      O1534   1.265       .  A
C1526      C1660   1.477       .  S
C1527      O1532   1.269       .  A
C1527      O1530   1.267   1_565  A
C1527      C1717   1.513       .  S
Cd1528     O2111   2.382       .  S
Cd1528     O1535   2.571       .  S
Cd1528     O2122   2.516       .  S
Cd1528     O1533   2.441   1_565  S
Cd1528     O1529   2.427       .  S
Cd1528     O1532   2.537       .  S
Cd1528     O1530   2.540   1_565  S
C1531      O2113   1.263       .  A
C1531      O2123   1.270       .  A
C1531      C1600   1.499       .  S
O1534     Cd2116   2.418       .  S
O1535      C2119   1.266       .  A
C1536      C1537   1.530       .  S
C1536      C1542   1.551       .  S
C1536      C1753   1.566       .  S
C1537      H1544   1.087       .  S
C1538      C1539   1.560       .  S
C1538      C1672   1.512       .  S
C1539      C1543   1.570       .  S
C1539      C2129   1.561       .  S
C1539      H1545   1.110       .  S
C1540      H1546   1.081       .  S
C1540      C1541   1.361       .  D
C1541      C2127   1.550   1_545  S
C1541      C1621   1.501       .  S
C1542      H1547   1.085       .  S
C1543      C1585   1.536       .  S
C1548      C1549   1.537       .  S
C1548      C1552   1.551       .  S
C1548      C1705   1.573       .  S
C1549      H1556   1.086   1_556  S
C1549      C2138   1.369   1_556  D
C1550      C1551   1.568       .  S
C1550      C2137   1.371       .  D
C1550      C1588   1.525       .  S
C1551      C1553   1.563       .  S
C1551      H1557   1.104       .  S
C1552      H1558   1.080       .  S
C1552      C2141   1.371       .  D
C1553      C2140   1.378       .  D
C1553      C1597   1.537       .  S
C1554      H1559   1.086       .  S
C1554      C1555   1.374       .  D
C1555      C1576   1.513       .  S
O1560      C1563   1.272       .  A
O1560     Cd1565   2.436       .  S
C1561      O1570   1.268       .  A
C1561      O1566   1.274       .  A
C1561      C1732   1.474       .  S
O1562      C1568   1.280       .  A
O1562     Cd1565   2.512       .  S
C1563      O1571   1.269       .  A
C1563      C1648   1.479       .  S
C1564      O1569   1.277       .  A
C1564      O1567   1.268       .  A
C1564      C1573   1.496       .  S
Cd1565     O1572   2.383       .  S
Cd1565     O1571   2.398       .  S
Cd1565     O1570   2.384       .  S
Cd1565     O1566   2.427       .  S
Cd1565     O1569   2.548       .  S
Cd1565     O1567   2.469       .  S
C1568      O1572   1.265       .  A
C1568      C1612   1.498       .  S
C1573      C1574   1.402       .  A
C1573      C1578   1.412       .  A
C1574      C1575   1.413       .  A
C1574      H1583   1.083       .  S
C1575      C1576   1.421       .  A
C1575      S1579   1.805       .  S
C1576      C1577   1.408       .  A
C1577      C1578   1.414       .  A
C1577      H1584   1.082       .  S
C1578      S1580   1.805       .  S
S1579      H1582   1.407       .  S
S1580      H1581   1.407       .  S
C1585      C2174   1.409       .  A
C1586      C2173   1.411   1_545  A
C1586      H1595   1.082       .  S
C1587      C2176   1.423       .  A
C1587      S1591   1.802       .  S
C1588      C2175   1.423       .  A
C1589      H1596   1.084       .  S
C1590      S1592   1.801       .  S
S1591      H1594   1.406       .  S
S1592      H1593   1.404       .  S
C1597      C2186   1.417       .  A
C1597      C1602   1.427       .  A
C1598      C2185   1.413       .  A
C1598      C1599   1.415       .  A
C1598      H1607   1.084       .  S
C1599      C2188   1.421   1_545  A
C1599      S1603   1.799       .  S
C1600      C2187   1.410       .  A
C1600      C1601   1.405       .  A
C1601      C1602   1.422       .  A
C1601      H1608   1.082       .  S
C1602      S1604   1.802       .  S
S1603      H1606   1.408       .  S
S1604      H1605   1.407       .  S
C1609      C1610   1.408       .  A
C1609      C1614   1.405       .  A
C1610      C1611   1.403       .  A
C1610      H1619   1.084       .  S
C1611      C1612   1.414       .  A
C1611      S1615   1.799       .  S
C1612      C1613   1.416       .  A
C1613      C1614   1.407       .  A
C1613      H1620   1.082       .  S
C1614      S1616   1.806       .  S
S1615      H1618   1.408       .  S
S1616      H1617   1.407       .  S
C1621      C1622   1.410       .  A
C1621      C1626   1.417       .  A
C1622      C1623   1.418       .  A
C1622      H1631   1.083       .  S
C1623      C1624   1.416       .  A
C1623      S1627   1.802       .  S
C1624      C1625   1.401       .  A
C1625      C1626   1.394       .  A
C1625      H1632   1.085       .  S
C1626      S1628   1.805       .  S
S1627      H1630   1.404       .  S
S1628      H1629   1.400   1_545  S
C1633      C1634   1.396       .  A
C1633      C1638   1.409       .  A
C1634      C1635   1.391       .  A
C1634      H1643   1.084       .  S
C1635      C1636   1.416       .  A
C1635      S1639   1.805       .  S
C1636      C1637   1.402       .  A
C1637      C1638   1.399       .  A
C1637      H1644   1.083       .  S
C1638      S1640   1.808       .  S
S1639      H1642   1.408       .  S
S1640      H1641   1.407       .  S
C1645      C1646   1.399       .  A
C1645      C1650   1.412       .  A
C1646      C1647   1.396       .  A
C1646      H1655   1.084       .  S
C1647      C1648   1.416       .  A
C1647      S1651   1.803       .  S
C1648      C1649   1.403       .  A
C1649      C1650   1.397       .  A
C1649      H1656   1.084       .  S
C1650      S1652   1.802       .  S
S1651      H1654   1.408       .  S
S1652      H1653   1.405       .  S
C1657      C1658   1.405       .  A
C1657      C1662   1.405       .  A
C1658      C1659   1.407       .  A
C1658      H1667   1.083       .  S
C1659      C1660   1.413       .  A
C1659      S1663   1.806       .  S
C1660      C1661   1.405       .  A
C1661      C1662   1.395       .  A
C1661      H1668   1.084       .  S
C1662      S1664   1.801       .  S
S1663      H1666   1.407       .  S
S1664      H1665   1.408       .  S
C1669      C1674   1.415       .  A
C1670      C1671   1.411       .  A
C1670      H1679   1.082       .  S
C1671      S1675   1.804       .  S
C1672      C1673   1.410       .  A
C1673      C1674   1.408       .  A
C1673      H1680   1.082       .  S
C1674      S1676   1.797       .  S
S1675      H1678   1.407       .  S
S1676      H1677   1.408       .  S
C1681      C1682   1.413       .  A
C1682      C1683   1.412       .  A
C1682      H1691   1.083       .  S
C1683      C1684   1.414       .  A
C1683      S1687   1.804       .  S
C1685      C1686   1.411       .  A
C1685      H1692   1.084       .  S
C1686      S1688   1.801       .  S
S1687      H1690   1.406       .  S
S1688      H1689   1.407       .  S
C1693      C1694   1.399       .  A
C1693      C1698   1.414       .  A
C1694      C1695   1.392       .  A
C1694      H1703   1.084       .  S
C1695      C1696   1.415       .  A
C1695      S1699   1.805       .  S
C1696      C1697   1.402       .  A
C1697      C1698   1.404       .  A
C1697      H1704   1.083       .  S
C1698      S1700   1.807       .  S
S1699      H1702   1.407       .  S
S1700      H1701   1.407       .  S
C1705      C1706   1.416       .  A
C1706      C1707   1.408       .  A
C1706      H1715   1.075       .  S
C1707      C1708   1.415       .  A
C1707      S1711   1.805       .  S
C1709      C1710   1.421       .  A
C1709      H1716   1.082       .  S
C1710      S1712   1.808   1_455  S
S1711      H1714   1.407       .  S
S1712      H1713   1.407       .  S
C1717      C2306   1.409       .  A
C1717      C1722   1.420   1_565  A
C1718      C2305   1.405       .  A
C1718      C1719   1.401       .  A
C1718      H1727   1.084       .  S
C1719      C2308   1.412       .  A
C1719      S1723   1.804       .  S
C1720      C2307   1.420       .  A
C1720      C1721   1.412   1_565  A
C1721      C1722   1.416       .  A
C1721      H1728   1.084       .  S
C1722      S1724   1.801       .  S
S1723      H1726   1.407       .  S
S1724      H1725   1.407       .  S
C1729      C1730   1.400       .  A
C1729      C1734   1.411       .  A
C1730      C1731   1.395       .  A
C1730      H1739   1.084       .  S
C1731      C1732   1.415       .  A
C1731      S1735   1.803       .  S
C1732      C1733   1.401       .  A
C1733      C1734   1.393       .  A
C1733      H1740   1.084       .  S
C1734      S1736   1.802       .  S
S1735      H1738   1.408       .  S
S1736      H1737   1.407       .  S
C1741      C1742   1.404       .  A
C1741      C1746   1.414       .  A
C1742      C1743   1.404       .  A
C1742      H1751   1.084       .  S
C1743      C1744   1.416       .  A
C1743      S1747   1.802       .  S
C1744      C1745   1.402       .  A
C1745      C1746   1.393       .  A
C1745      H1752   1.084       .  S
C1746      S1748   1.806       .  S
S1747      H1750   1.408       .  S
S1748      H1749   1.408       .  S
C1753      C2342   1.421       .  A
C1753      C1758   1.425       .  A
C1754      C2341   1.417       .  A
C1754      C1755   1.411       .  A
C1754      H1763   1.079       .  S
C1755      C2344   1.420       .  A
C1755      S1759   1.802       .  S
C1756      C2343   1.410       .  A
C1756      C1757   1.406       .  A
C1757      C1758   1.412       .  A
C1757      H1764   1.082       .  S
C1758      S1760   1.807       .  S
S1759      H1762   1.408       .  S
S1760      H1761   1.407       .  S
O1765      C1768   1.268       .  A
C1766      O1775   1.270       .  A
C1766      O1771   1.263       .  A
C1766      C2038   1.482       .  S
O1767     Cd1770   2.591       .  S
C1768      O1776   1.270       .  A
C1768      C2023   1.464       .  S
C1769      C2014   1.522       .  S
Cd1770     O1777   2.543       .  S
Cd1770     O1775   2.494       .  S
Cd1770     O1771   2.387       .  S
C1773      C2050   1.510       .  S
O1778      C1781   1.262       .  A
C1779      O1788   1.268       .  A
C1779      O1784   1.262       .  A
C1779      C2035   1.460       .  S
O1780     Cd1783   2.579   1_655  S
C1781      O1789   1.269       .  A
C1781      C1987   1.471       .  S
C1782      O1787   1.259   1_455  A
C1782      C1975   1.505       .  S
Cd1783     O1790   2.478       .  S
Cd1783     O1788   2.490   1_455  S
Cd1783     O1784   2.390   1_455  S
Cd1783     O1787   2.481   1_455  S
C1786      C2002   1.515       .  S
O1791      C1794   1.270       .  A
O1791     Cd1796   2.351   1_655  S
C1792      O1801   1.276       .  A
C1792      O1797   1.269       .  A
C1792      C1951   1.465       .  S
O1793      C1799   1.270       .  A
O1793     Cd1796   2.453       .  S
C1794      O1802   1.275       .  A
C1794      C1939   1.464       .  S
C1795      C1963   1.494       .  S
Cd1796     O1803   2.531       .  S
Cd1796     O1802   2.449   1_455  S
Cd1796     O1800   2.464       .  S
Cd1796     O1798   2.554       .  S
C1799      O1803   1.278       .  A
C1799      C1978   1.492       .  S
O1804      C1807   1.260       .  A
O1804     Cd1809   2.396       .  S
C1805      O1814   1.271       .  A
C1805      O1810   1.264       .  A
C1805      C1930   1.468       .  S
O1806      C1812   1.274       .  A
O1806     Cd1809   2.606       .  S
C1807      O1815   1.269       .  A
C1807      C1990   1.470       .  S
C1808      O1813   1.270       .  A
C1808      O1811   1.264       .  A
C1808      C1903   1.498       .  S
Cd1809     O1816   2.466       .  S
Cd1809     O1815   2.485       .  S
Cd1809     O1814   2.453       .  S
Cd1809     O1810   2.394       .  S
Cd1809     O1813   2.527       .  S
Cd1809     O1811   2.474       .  S
C1812      O1816   1.261       .  A
C1812      C1918   1.512       .  S
O1817      C1820   1.265       .  A
C1818      O1827   1.268       .  A
C1818      O1823   1.263       .  A
C1818      C1927   1.472       .  S
O1819     Cd1822   2.535       .  S
C1820      O1828   1.269       .  A
C1820      C1954   1.479       .  S
C1821      O1826   1.271       .  A
C1821      O1824   1.263       .  A
C1821      C2011   1.517       .  S
Cd1822     O1829   2.584       .  S
Cd1822     O1827   2.464       .  S
Cd1822     O1823   2.423       .  S
Cd1822     O1826   2.565       .  S
Cd1822     O1824   2.516       .  S
C1825      C1894   1.517   1_545  S
C1830      C1831   1.544       .  S
C1830      C1836   1.544   1_565  S
C1830      C2047   1.569       .  S
C1831      H1838   1.085       .  S
C1832      C1833   1.556   1_565  S
C1832      C1966   1.506       .  S
C1833      C1837   1.566       .  S
C1833      H1839   1.110       .  S
C1834      H1840   1.084       .  S
C1834      C1835   1.364       .  D
C1835      C1915   1.508       .  S
C1836      H1841   1.084       .  S
C1837      C1879   1.537       .  S
C1842      C1843   1.541       .  S
C1842      C1846   1.551       .  S
C1842      C1999   1.568       .  S
C1843      H1850   1.086       .  S
C1844      C1845   1.567   1_545  S
C1844      C1882   1.525   1_545  S
C1845      C1847   1.561   1_565  S
C1845      H1851   1.110       .  S
C1846      H1852   1.081       .  S
C1847      C1891   1.517   1_545  S
C1848      H1853   1.086       .  S
C1848      C1849   1.367   1_545  D
C1849      C1870   1.510       .  S
O1854      C1857   1.275       .  A
O1854     Cd1859   2.445       .  S
C1855      O1864   1.270       .  A
C1855      O1860   1.275       .  A
C1855      C2026   1.478       .  S
O1856      C1862   1.283       .  A
O1856     Cd1859   2.531       .  S
C1857      O1865   1.271       .  A
C1857      C1942   1.479       .  S
C1858      O1863   1.279       .  A
C1858      O1861   1.270       .  A
C1858      C1867   1.515       .  S
Cd1859     O1866   2.414       .  S
Cd1859     O1865   2.382       .  S
Cd1859     O1864   2.385       .  S
Cd1859     O1860   2.428       .  S
Cd1859     O1863   2.570       .  S
Cd1859     O1861   2.480       .  S
C1862      O1866   1.268       .  A
C1862      C1906   1.501       .  S
C1867      C1868   1.412       .  A
C1867      C1872   1.422       .  A
C1868      C1869   1.421       .  A
C1868      H1877   1.082       .  S
C1869      C1870   1.415       .  A
C1869      S1873   1.803       .  S
C1870      C1871   1.404       .  A
C1871      C1872   1.409       .  A
C1871      H1878   1.084       .  S
C1872      S1874   1.802       .  S
S1873      H1876   1.407       .  S
S1874      H1875   1.407       .  S
C1880      C2175   1.417       .  A
C1880      H1889   1.084       .  S
C1881      C2174   1.421       .  A
C1881      S1885   1.802       .  S
C1883      C2178   1.419       .  A
C1883      H1890   1.081       .  S
C1884      C2177   1.414   1_655  A
C1884      S1886   1.802       .  S
S1885      H1888   1.407       .  S
S1886      H1887   1.403       .  S
C1891      C1896   1.413       .  A
C1892      C1893   1.414       .  A
C1892      H1901   1.083       .  S
C1893      S1897   1.799       .  S
C1894      C1895   1.412       .  A
C1895      C1896   1.417       .  A
C1895      H1902   1.081       .  S
C1896      S1898   1.804       .  S
S1897      H1900   1.408       .  S
S1898      H1899   1.407       .  S
C1903      C1904   1.410       .  A
C1903      C1908   1.411       .  A
C1904      C1905   1.407       .  A
C1904      H1913   1.084       .  S
C1905      C1906   1.415       .  A
C1905      S1909   1.802       .  S
C1906      C1907   1.413       .  A
C1907      C1908   1.411       .  A
C1907      H1914   1.082       .  S
C1908      S1910   1.806       .  S
S1909      H1912   1.402       .  S
S1910      H1911   1.407       .  S
C1915      C1916   1.410       .  A
C1915      C1920   1.413       .  A
C1916      C1917   1.418       .  A
C1916      H1925   1.083       .  S
C1917      C1918   1.419       .  A
C1917      S1921   1.800       .  S
C1918      C1919   1.410       .  A
C1919      C1920   1.409       .  A
C1919      H1926   1.083       .  S
C1920      S1922   1.806       .  S
S1921      H1924   1.407       .  S
S1922      H1923   1.407       .  S
C1927      C1928   1.400       .  A
C1927      C1932   1.415       .  A
C1928      C1929   1.396       .  A
C1928      H1937   1.084       .  S
C1929      C1930   1.415       .  A
C1929      S1933   1.805       .  S
C1930      C1931   1.399       .  A
C1931      C1932   1.399       .  A
C1931      H1938   1.083       .  S
C1932      S1934   1.808       .  S
S1933      H1936   1.407       .  S
S1934      H1935   1.407       .  S
C1939      C1940   1.399       .  A
C1939      C1944   1.411       .  A
C1940      C1941   1.395       .  A
C1940      H1949   1.084       .  S
C1941      C1942   1.415       .  A
C1941      S1945   1.800       .  S
C1942      C1943   1.403       .  A
C1943      C1944   1.398       .  A
C1943      H1950   1.084       .  S
C1944      S1946   1.799       .  S
S1945      H1948   1.407       .  S
S1946      H1947   1.406       .  S
C1951      C1952   1.403       .  A
C1951      C1956   1.405       .  A
C1952      C1953   1.406       .  A
C1952      H1961   1.083       .  S
C1953      C1954   1.417       .  A
C1953      S1957   1.808       .  S
C1954      C1955   1.404       .  A
C1955      C1956   1.394       .  A
C1955      H1962   1.084       .  S
C1956      S1958   1.801       .  S
S1957      H1960   1.406       .  S
S1958      H1959   1.408       .  S
C1963      C1968   1.416       .  A
C1964      C1965   1.413       .  A
C1964      H1973   1.080       .  S
C1965      S1969   1.804   1_455  S
C1966      C1967   1.409       .  A
C1967      C1968   1.414       .  A
C1967      H1974   1.083       .  S
C1968      S1970   1.800       .  S
S1969      H1972   1.407       .  S
S1970      H1971   1.404       .  S
C1975      C1976   1.407       .  A
C1976      C1977   1.408       .  A
C1976      H1985   1.083       .  S
C1977      C1978   1.414       .  A
C1977      S1981   1.798       .  S
C1979      C1980   1.402       .  A
C1979      H1986   1.084       .  S
C1980      S1982   1.800       .  S
S1981      H1984   1.405       .  S
S1982      H1983   1.408       .  S
C1987      C1988   1.400       .  A
C1987      C1992   1.414       .  A
C1988      C1989   1.398       .  A
C1988      H1997   1.084       .  S
C1989      C1990   1.415       .  A
C1989      S1993   1.805       .  S
C1990      C1991   1.399       .  A
C1991      C1992   1.399       .  A
C1991      H1998   1.083       .  S
C1992      S1994   1.809       .  S
S1993      H1996   1.407       .  S
S1994      H1995   1.407       .  S
C1999      C2000   1.415       .  A
C2000      C2001   1.411       .  A
C2000      H2009   1.078       .  S
C2001      C2002   1.419       .  A
C2001      S2005   1.803       .  S
C2003      C2004   1.416       .  A
C2003      H2010   1.082   1_455  S
C2004      S2006   1.811   1_455  S
S2005      H2008   1.408       .  S
S2006      H2007   1.406       .  S
C2011      C2016   1.422       .  A
C2012      C2013   1.410       .  A
C2012      H2021   1.083       .  S
C2013      S2017   1.799       .  S
C2014      C2015   1.411       .  A
C2015      C2016   1.415       .  A
C2015      H2022   1.083       .  S
C2016      S2018   1.801       .  S
S2017      H2020   1.405       .  S
S2018      H2019   1.408       .  S
C2023      C2024   1.401       .  A
C2023      C2028   1.413       .  A
C2024      C2025   1.397       .  A
C2024      H2033   1.084       .  S
C2025      C2026   1.417       .  A
C2025      S2029   1.803       .  S
C2026      C2027   1.402       .  A
C2027      C2028   1.396       .  A
C2027      H2034   1.084       .  S
C2028      S2030   1.802       .  S
S2029      H2032   1.408       .  S
S2030      H2031   1.407       .  S
C2035      C2036   1.402       .  A
C2035      C2040   1.404       .  A
C2036      C2037   1.402       .  A
C2036      H2045   1.084       .  S
C2037      C2038   1.417       .  A
C2037      S2041   1.801       .  S
C2038      C2039   1.408       .  A
C2039      C2040   1.391       .  A
C2039      H2046   1.084       .  S
C2040      S2042   1.805       .  S
S2041      H2044   1.408       .  S
S2042      H2043   1.407       .  S
C2047      C2052   1.425       .  A
C2048      C2049   1.410       .  A
C2048      H2057   1.079       .  S
C2049      S2053   1.802       .  S
C2050      C2051   1.410       .  A
C2051      C2052   1.414       .  A
C2051      H2058   1.082       .  S
C2052      S2054   1.810       .  S
S2053      H2056   1.407       .  S
S2054      H2055   1.407       .  S
O2059      C2062   1.262       .  A
C2060      O2069   1.266       .  A
C2060      O2065   1.265       .  A
C2060      C2332   1.449       .  S
O2061     Cd2064   2.454       .  S
C2062      O2070   1.266       .  A
C2062      C2317   1.462       .  S
C2063      C2308   1.481       .  S
Cd2064     O2071   2.554       .  S
Cd2064     O2069   2.456       .  S
Cd2064     O2065   2.343       .  S
C2067      C2344   1.525       .  S
O2072      C2075   1.268       .  A
C2073      O2082   1.271       .  A
C2073      O2078   1.272       .  A
C2073      C2329   1.471       .  S
O2074     Cd2077   2.599       .  S
C2075      O2083   1.271       .  A
C2075      C2281   1.482       .  S
C2076      O2081   1.281       .  A
C2076      C2269   1.509       .  S
Cd2077     O2084   2.473       .  S
Cd2077     O2082   2.395       .  S
Cd2077     O2078   2.422       .  S
Cd2077     O2081   2.550       .  S
C2080      C2296   1.512       .  S
O2085      C2088   1.264       .  A
O2085     Cd2090   2.422       .  S
C2086      O2095   1.271       .  A
C2086      O2091   1.262       .  A
C2086      C2245   1.478       .  S
O2087      C2093   1.268       .  A
O2087     Cd2090   2.523       .  S
C2088      O2096   1.267       .  A
C2088      C2233   1.471       .  S
C2089      C2257   1.518       .  S
Cd2090     O2097   2.508       .  S
Cd2090     O2096   2.461       .  S
Cd2090     O2094   2.547       .  S
Cd2090     O2092   2.525   1_655  S
C2093      O2097   1.264       .  A
C2093      C2272   1.506       .  S
O2098      C2101   1.271       .  A
O2098     Cd2103   2.366       .  S
C2099      O2108   1.277       .  A
C2099      O2104   1.271       .  A
C2099      C2224   1.460       .  S
O2100      C2106   1.267       .  A
O2100     Cd2103   2.463       .  S
C2101      O2109   1.275       .  A
C2101      C2284   1.467       .  S
C2102      O2107   1.272       .  A
C2102      O2105   1.279       .  A
C2102      C2197   1.497       .  S
Cd2103     O2110   2.572       .  S
Cd2103     O2109   2.446       .  S
Cd2103     O2108   2.437       .  S
Cd2103     O2104   2.335       .  S
Cd2103     O2107   2.466       .  S
Cd2103     O2105   2.529       .  S
C2106      O2110   1.283       .  A
C2106      C2212   1.520       .  S
O2111      C2114   1.260       .  A
C2112      O2121   1.269       .  A
C2112      O2117   1.267       .  A
C2112      C2221   1.479       .  S
O2113     Cd2116   2.510       .  S
C2114      O2122   1.273       .  A
C2114      C2248   1.473       .  S
C2115      O2120   1.270       .  A
C2115      O2118   1.264       .  A
C2115      C2305   1.492       .  S
Cd2116     O2123   2.567       .  S
Cd2116     O2121   2.414       .  S
Cd2116     O2117   2.444       .  S
Cd2116     O2120   2.503       .  S
Cd2116     O2118   2.478       .  S
C2119      C2188   1.530       .  S
C2124      C2125   1.546   1_545  S
C2124      C2130   1.555       .  S
C2124      C2341   1.578       .  S
C2125      H2132   1.085       .  S
C2126      C2127   1.556       .  S
C2126      C2260   1.523       .  S
C2127      C2131   1.566       .  S
C2127      H2133   1.109       .  S
C2128      H2134   1.079       .  S
C2128      C2129   1.366       .  D
C2129      C2209   1.515       .  S
C2130      H2135   1.085       .  S
C2131      C2173   1.534       .  S
C2136      C2137   1.541       .  S
C2136      C2140   1.553       .  S
C2136      C2293   1.575       .  S
C2137      H2144   1.086       .  S
C2138      C2139   1.579   1_544  S
C2138      C2176   1.525       .  S
C2139      C2141   1.572   1_565  S
C2139      H2145   1.107       .  S
C2140      H2146   1.077       .  S
C2141      C2185   1.536       .  S
C2142      H2147   1.083   1_455  S
C2142      C2143   1.381   1_545  D
C2143      C2164   1.540   1_455  S
O2148      C2151   1.261       .  A
O2148     Cd2153   2.389       .  S
C2149      O2158   1.269       .  A
C2149      O2154   1.261       .  A
C2149      C2320   1.480       .  S
O2150      C2156   1.265       .  A
O2150     Cd2153   2.520       .  S
C2151      O2159   1.269       .  A
C2151      C2236   1.469       .  S
C2152      O2157   1.265       .  A
C2152      O2155   1.267       .  A
C2152      C2161   1.507       .  S
Cd2153     O2160   2.542       .  S
Cd2153     O2159   2.486       .  S
Cd2153     O2158   2.492       .  S
Cd2153     O2154   2.424       .  S
Cd2153     O2157   2.513       .  S
Cd2153     O2155   2.569       .  S
C2156      O2160   1.268       .  A
C2156      C2200   1.514       .  S
C2161      C2162   1.407       .  A
C2161      C2166   1.413       .  A
C2162      C2163   1.426       .  A
C2162      H2171   1.082       .  S
C2163      C2164   1.431       .  A
C2163      S2167   1.804   1_556  S
C2164      C2165   1.415       .  A
C2165      C2166   1.403       .  A
C2165      H2172   1.080       .  S
C2166      S2168   1.806       .  S
S2167      H2170   1.406       .  S
S2168      H2169   1.407       .  S
C2174      H2183   1.083       .  S
C2175      S2179   1.802       .  S
C2177      H2184   1.083   1_455  S
C2178      S2180   1.807       .  S
S2179      H2182   1.405       .  S
S2180      H2181   1.398       .  S
C2185      C2190   1.421   1_545  A
C2186      C2187   1.406       .  A
C2186      H2195   1.082       .  S
C2187      S2191   1.806       .  S
C2188      C2189   1.415       .  A
C2189      C2190   1.424       .  A
C2189      H2196   1.082       .  S
C2190      S2192   1.802       .  S
S2191      H2194   1.404       .  S
S2192      H2193   1.406       .  S
C2197      C2198   1.404       .  A
C2197      C2202   1.413       .  A
C2198      C2199   1.415       .  A
C2198      H2207   1.083       .  S
C2199      C2200   1.423       .  A
C2199      S2203   1.807       .  S
C2200      C2201   1.412       .  A
C2201      C2202   1.411       .  A
C2201      H2208   1.083       .  S
C2202      S2204   1.803       .  S
S2203      H2206   1.407       .  S
S2204      H2205   1.406       .  S
C2209      C2210   1.401       .  A
C2209      C2214   1.422       .  A
C2210      C2211   1.414       .  A
C2210      H2219   1.083       .  S
C2211      C2212   1.430       .  A
C2211      S2215   1.800       .  S
C2212      C2213   1.407       .  A
C2213      C2214   1.412       .  A
C2213      H2220   1.084       .  S
C2214      S2216   1.799       .  S
S2215      H2218   1.408       .  S
S2216      H2217   1.400       .  S
C2221      C2222   1.406       .  A
C2221      C2226   1.417       .  A
C2222      C2223   1.393       .  A
C2222      H2231   1.084       .  S
C2223      C2224   1.406       .  A
C2223      S2227   1.804       .  S
C2224      C2225   1.401       .  A
C2225      C2226   1.402       .  A
C2225      H2232   1.083       .  S
C2226      S2228   1.809       .  S
S2227      H2230   1.408       .  S
S2228      H2229   1.407       .  S
C2233      C2234   1.402       .  A
C2233      C2238   1.414       .  A
C2234      C2235   1.393       .  A
C2234      H2243   1.084       .  S
C2235      C2236   1.413       .  A
C2235      S2239   1.805       .  S
C2236      C2237   1.402       .  A
C2237      C2238   1.398       .  A
C2237      H2244   1.084       .  S
C2238      S2240   1.802       .  S
S2239      H2242   1.407       .  S
S2240      H2241   1.407       .  S
C2245      C2246   1.400       .  A
C2245      C2250   1.418       .  A
C2246      C2247   1.400       .  A
C2246      H2255   1.083       .  S
C2247      C2248   1.415       .  A
C2247      S2251   1.809       .  S
C2248      C2249   1.399       .  A
C2249      C2250   1.399       .  A
C2249      H2256   1.084       .  S
C2250      S2252   1.804       .  S
S2251      H2254   1.407       .  S
S2252      H2253   1.408       .  S
C2257      C2262   1.422       .  A
C2258      C2259   1.413       .  A
C2258      H2267   1.082       .  S
C2259      S2263   1.805       .  S
C2260      C2261   1.409       .  A
C2261      C2262   1.413       .  A
C2261      H2268   1.083       .  S
C2262      S2264   1.801       .  S
S2263      H2266   1.406       .  S
S2264      H2265   1.407       .  S
C2269      C2270   1.412       .  A
C2270      C2271   1.406       .  A
C2270      H2279   1.084       .  S
C2271      C2272   1.416       .  A
C2271      S2275   1.801   1_655  S
C2273      C2274   1.410       .  A
C2273      H2280   1.083       .  S
C2274      S2276   1.799       .  S
S2275      H2278   1.407   1_455  S
S2276      H2277   1.407       .  S
C2281      C2282   1.406       .  A
C2281      C2286   1.418       .  A
C2282      C2283   1.398       .  A
C2282      H2291   1.082       .  S
C2283      C2284   1.406       .  A
C2283      S2287   1.806       .  S
C2284      C2285   1.400       .  A
C2285      C2286   1.402       .  A
C2285      H2292   1.083       .  S
C2286      S2288   1.809       .  S
S2287      H2290   1.407       .  S
S2288      H2289   1.407       .  S
C2293      C2294   1.416       .  A
C2294      C2295   1.406       .  A
C2294      H2303   1.076       .  S
C2295      C2296   1.416       .  A
C2295      S2299   1.807       .  S
C2297      C2298   1.427       .  A
C2297      H2304   1.082       .  S
C2298      S2300   1.806       .  S
S2299      H2302   1.407       .  S
S2300      H2301   1.406       .  S
C2305      C2310   1.419       .  A
C2306      C2307   1.412       .  A
C2306      H2315   1.084       .  S
C2307      S2311   1.801       .  S
C2308      C2309   1.405       .  A
C2309      C2310   1.409       .  A
C2309      H2316   1.084       .  S
C2310      S2312   1.803       .  S
S2311      H2314   1.408       .  S
S2312      H2313   1.407       .  S
C2317      C2318   1.397       .  A
C2317      C2322   1.414       .  A
C2318      C2319   1.393       .  A
C2318      H2327   1.085       .  S
C2319      C2320   1.418       .  A
C2319      S2323   1.801       .  S
C2320      C2321   1.405       .  A
C2321      C2322   1.402       .  A
C2321      H2328   1.084       .  S
C2322      S2324   1.809       .  S
S2323      H2326   1.407       .  S
S2324      H2325   1.401       .  S
C2329      C2330   1.403       .  A
C2329      C2334   1.414       .  A
C2330      C2331   1.393       .  A
C2330      H2339   1.084       .  S
C2331      C2332   1.408       .  A
C2331      S2335   1.805       .  S
C2332      C2333   1.398       .  A
C2333      C2334   1.395       .  A
C2333      H2340   1.084       .  S
C2334      S2336   1.803       .  S
S2335      H2338   1.407       .  S
S2336      H2337   1.407       .  S
C2341      C2346   1.424   1_545  A
C2342      C2343   1.408       .  A
C2342      H2351   1.071       .  S
C2343      S2347   1.802       .  S
C2344      C2345   1.412   1_545  A
C2345      C2346   1.424       .  A
C2345      H2352   1.082       .  S
C2346      S2348   1.804       .  S
S2347      H2350   1.407       .  S
S2348      H2349   1.406       .  S
