geometry optimzed in LAMMPS
_audit_creation_date              2020-11-30 
_audit_creation_method            'lammps2cif' 
_symmetry_space_group_name_H-M    'P1' 
_symmetry_Int_Tables_number       1 
_symmetry_cell_setting            triclinic 
loop_ 
_symmetry_equiv_pos_as_xyz 
  x,y,z 
_cell_length_a                    38.41524211 
_cell_length_b                    55.80712467432924 
_cell_length_c                    31.564772531096953 
_cell_angle_alpha                 89.95371462357701 
_cell_angle_beta                  89.84492964900979 
_cell_angle_gamma                 90.04513315083813 
loop_ 
_atom_site_label 
_atom_site_type_symbol 
_atom_site_fract_x 
_atom_site_fract_y 
_atom_site_fract_z 
_atom_site_charge 
N1          N  0.17352707  0.46188656  0.34851826    -0.27400
N2          N  0.19505485  0.44616799  0.36553470    -0.35300
C3          C  0.21972391  0.44044678  0.33712073     0.00900
C4          C  0.21333136  0.45302298  0.30022735     0.06900
C5          C  0.18401281  0.46666289  0.30871465    -0.06200
H6          H  0.24078161  0.42801338  0.34290669     0.07600
H7          H  0.17176696  0.47966327  0.28822599     0.08800
Cu8        Cu  0.19024777  0.43313006  0.42637986     0.44200
Cu9        Cu  0.13133878  0.47617191  0.38074096     0.42000
Cu10       Cu  0.11533758  0.45144780  0.48628427     0.43900
N11         N  0.17914015  0.42046982  0.48626898    -0.34800
N12         N  0.15113376  0.42654073  0.50805837    -0.29100
C13         C  0.15175573  0.41519214  0.54565681    -0.05200
C14         C  0.18154108  0.40117515  0.54746284     0.07000
C15         C  0.19845953  0.40532109  0.50937279     0.00800
H16         H  0.13227357  0.41731772  0.57018044     0.08500
H17         H  0.22372002  0.39887214  0.49961928     0.07600
N18         N  0.08656814  0.47893320  0.45931450    -0.36300
N19         N  0.09219700  0.48781536  0.42103473    -0.28500
C20         C  0.07054140  0.50638301  0.41461072    -0.03700
C21         C  0.05026599  0.50927726  0.45051352     0.04900
C22         C  0.06134156  0.49171589  0.47829742     0.03000
H23         H  0.07106398  0.51776450  0.38687077     0.08100
H24         H  0.05251975  0.48895164  0.51051439     0.07000
N25         N  0.33848381  0.45828445  0.10020091    -0.27400
N26         N  0.31873361  0.44053827  0.08655840    -0.35300
C27         C  0.29549658  0.43485720  0.11678949     0.00900
C28         C  0.30097588  0.44967448  0.15127968     0.06900
C29         C  0.32824931  0.46449233  0.13942032    -0.06200
H30         H  0.27558618  0.42126270  0.11355337     0.07600
H31         H  0.33887290  0.47944093  0.15685005     0.08800
Cu32       Cu  0.32274678  0.42604650  0.02655379     0.44200
Cu33       Cu  0.37755432  0.47361457  0.06420208     0.42000
Cu34       Cu  0.39207377  0.44799980  0.95946205     0.43900
N35         N  0.33063104  0.41472460  0.96497834    -0.34800
N36         N  0.35633165  0.42229914  0.94052415    -0.29100
C37         C  0.35333491  0.41196815  0.90222725    -0.05200
C38         C  0.32442260  0.39705441  0.90265458     0.07000
C39         C  0.31045887  0.39958800  0.94290095     0.00800
H40         H  0.37047181  0.41550516  0.87568464     0.08500
H41         H  0.28639045  0.39218953  0.95484501     0.07600
N42         N  0.42118323  0.47582264  0.98474388    -0.36300
N43         N  0.41573849  0.48511144  0.02271323    -0.28500
C44         C  0.43847452  0.50302840  0.02912648    -0.03700
C45         C  0.45891484  0.50534841  0.99329942     0.04900
C46         C  0.44749950  0.48767720  0.96591800     0.03000
H47         H  0.43968007  0.51381950  0.05754845     0.08100
H48         H  0.45771796  0.48347586  0.93486217     0.07000
C49         C  0.26271468  0.34825207  0.75875402     0.80100
N50         N  0.24849315  0.36059150  0.72596649    -0.78200
C51         C  0.23367368  0.34892660  0.69284477     0.82500
N52         N  0.23400351  0.32459202  0.69214614    -0.78200
C53         C  0.24680145  0.31207156  0.72545966     0.82600
N54         N  0.26061977  0.32391510  0.75896392    -0.79900
N55         N  0.32710471  0.13710230  0.35168156    -0.27400
N56         N  0.30617618  0.15375754  0.36698441    -0.35300
C57         C  0.28316326  0.16002025  0.33700451     0.00900
C58         C  0.29015531  0.14679586  0.30093506     0.06900
C59         C  0.31799449  0.13227226  0.31151546    -0.06200
H60         H  0.26237695  0.17285631  0.34144017     0.07600
H61         H  0.32973846  0.11839523  0.29237382     0.08800
Cu62       Cu  0.30851674  0.16580104  0.42869750     0.44200
Cu63       Cu  0.36579685  0.12100081  0.38700563     0.42000
Cu64       Cu  0.37428308  0.13927655  0.49699009     0.43900
N65         N  0.31451334  0.17430980  0.49187327    -0.34800
N66         N  0.33841594  0.16490350  0.51695468    -0.29100
C67         C  0.33528169  0.17473664  0.55572274    -0.05200
C68         C  0.30823094  0.19113085  0.55469683     0.07000
C69         C  0.29548323  0.19018898  0.51390993     0.00800
H70         H  0.35120328  0.17003730  0.58267240     0.08500
H71         H  0.27417565  0.20052690  0.50100510     0.07600
N72         N  0.40689698  0.11452842  0.46749559    -0.36300
N73         N  0.40340327  0.10785801  0.42753933    -0.28500
C74         C  0.42834353  0.09188820  0.41786002    -0.03700
C75         C  0.44845188  0.08812991  0.45348880     0.04900
C76         C  0.43437270  0.10297241  0.48424086     0.03000
H77         H  0.43203858  0.08415878  0.38678106     0.08100
H78         H  0.44339959  0.10514579  0.51645017     0.07000
N79         N  0.16917095  0.13518052  0.09903689    -0.27400
N80         N  0.18656311  0.15423824  0.08592592    -0.35300
C81         C  0.20934163  0.16078142  0.11598515     0.00900
C82         C  0.20584521  0.14524866  0.14986547     0.06900
C83         C  0.18038362  0.12908058  0.13787207    -0.06200
H84         H  0.22716681  0.17573233  0.11335227     0.07600
H85         H  0.17128243  0.11362976  0.15536064     0.08800
Cu86       Cu  0.17902450  0.17019350  0.02765310     0.44200
Cu87       Cu  0.13090393  0.11851010  0.06362996     0.42000
Cu88       Cu  0.10924547  0.14637119  0.96324685     0.43900
N89         N  0.16770397  0.18240045  0.96749887    -0.34800
N90         N  0.14211625  0.17392394  0.94396152    -0.29100
C91         C  0.14330655  0.18461827  0.90579539    -0.05200
C92         C  0.17081771  0.20072068  0.90540280     0.07000
C93         C  0.18589454  0.19858894  0.94498930     0.00800
H94         H  0.12621059  0.18033768  0.87968696     0.08500
H95         H  0.20967703  0.20686007  0.95587463     0.07600
N96         N  0.08273500  0.11713510  0.98844737    -0.36300
N97         N  0.09118655  0.10672702  0.02462625    -0.28500
C98         C  0.06980055  0.08802944  0.03145320    -0.03700
C99         C  0.04643099  0.08675402  0.99829145     0.04900
C100        C  0.05561970  0.10535040  0.97137239     0.03000
H101        H  0.07106048  0.07628169  0.05868785     0.08100
H102        H  0.04425216  0.10960606  0.94099380     0.07000
C103        C  0.22813752  0.24972087  0.75831153     0.80100
N104        N  0.23198086  0.27396766  0.75925370    -0.78200
C105        C  0.24526154  0.28588813  0.72531506     0.82500
N106        N  0.25560074  0.27352347  0.69046464    -0.78200
C107        C  0.25285690  0.24929234  0.68974010     0.82600
N108        N  0.23933454  0.23758765  0.72364525    -0.79900
N109        N  0.83419632  0.62789616  0.60568556    -0.27400
N110        N  0.81355127  0.64548809  0.59344690    -0.35300
C111        C  0.78982055  0.64966729  0.62385182     0.00900
C112        C  0.79540741  0.63366068  0.65663457     0.06900
C113        C  0.82404399  0.62031800  0.64422681    -0.06200
H114        H  0.77090279  0.66395900  0.62262562     0.07600
H115        H  0.83671331  0.60624485  0.66202928     0.08800
Cu116      Cu  0.81848124  0.66316747  0.53621521     0.44200
Cu117      Cu  0.87544596  0.61554772  0.56956376     0.42000
Cu118      Cu  0.88789617  0.64381920  0.46673667     0.43900
N119        N  0.82704715  0.67741050  0.47664533    -0.34800
N120        N  0.85278870  0.67070618  0.45143404    -0.29100
C121        C  0.85036367  0.68277362  0.41465610    -0.05200
C122        C  0.82174665  0.69774954  0.41697635     0.07000
C123        C  0.80737121  0.69371059  0.45649127     0.00800
H124        H  0.86713858  0.67996279  0.38753262     0.08500
H125        H  0.78385014  0.70158481  0.46924974     0.07600
N126        N  0.91777879  0.61549903  0.48888546    -0.36300
N127        N  0.91347459  0.60553849  0.52656552    -0.28500
C128        C  0.93591315  0.58724192  0.53069611    -0.03700
C129        C  0.95542105  0.58563832  0.49395243     0.04900
C130        C  0.94297324  0.60364509  0.46792663     0.03000
H131        H  0.93661346  0.57525428  0.55761351     0.08100
H132        H  0.95112848  0.60752072  0.43581002     0.07000
N133        N  0.68749578  0.62508359  0.86941346    -0.27400
N134        N  0.70845878  0.64198917  0.88380410    -0.35300
C135        C  0.73263351  0.64684174  0.85411271     0.00900
C136        C  0.72673734  0.63206062  0.81963759     0.06900
C137        C  0.69769875  0.61871983  0.83030636    -0.06200
H138        H  0.75223806  0.66063890  0.85704134     0.07600
H139        H  0.68485317  0.60537751  0.81100642     0.08800
Cu140      Cu  0.70320062  0.65755202  0.94314504     0.44200
Cu141      Cu  0.64615645  0.61112505  0.90313442     0.42000
Cu142      Cu  0.63309989  0.63380551  0.00853324     0.43900
N143        N  0.69347659  0.66843180  0.00489812    -0.34800
N144        N  0.66788939  0.65980518  0.02849602    -0.29100
C145        C  0.66904049  0.67009655  0.06693796    -0.05200
C146        C  0.69701575  0.68574609  0.06789093     0.07000
C147        C  0.71162732  0.68443726  0.02780368     0.00800
H148        H  0.65035714  0.66668411  0.09185637     0.08500
H149        H  0.73414824  0.69414927  0.01633292     0.07600
N150        N  0.60399394  0.60618306  0.98283355    -0.36300
N151        N  0.60875676  0.59802314  0.94398089    -0.28500
C152        C  0.58669228  0.57979076  0.93698180    -0.03700
C153        C  0.56740029  0.57606140  0.97340273     0.04900
C154        C  0.57874960  0.59330242  0.00171792     0.03000
H155        H  0.58525505  0.56969712  0.90778659     0.08100
H156        H  0.56916045  0.59656690  0.03340856     0.07000
C157        C  0.74370382  0.74725496  0.20531483     0.80100
N158        N  0.74324731  0.77160241  0.20369997    -0.78200
C159        C  0.75212640  0.78488614  0.23813505     0.82500
N160        N  0.76201600  0.77374711  0.27443438    -0.78200
C161        C  0.76293050  0.74944948  0.27629868     0.82600
N162        N  0.75386533  0.73643337  0.24180689    -0.79900
N163        N  0.67580012  0.97632171  0.59921101    -0.27400
N164        N  0.69531617  0.95780374  0.58840601    -0.35300
C165        C  0.71578978  0.95190724  0.62129519     0.00900
C166        C  0.70912262  0.96764391  0.65426714     0.06900
C167        C  0.68328561  0.98267356  0.63927671    -0.06200
H168        H  0.73379490  0.93704202  0.62119822     0.07600
H169        H  0.67131532  0.99746514  0.65597929     0.08800
Cu170      Cu  0.69415073  0.94193108  0.52886294     0.44200
Cu171      Cu  0.64095859  0.99259738  0.55832436     0.42000
Cu172      Cu  0.63889693  0.97058726  0.45031050     0.43900
N173        N  0.69059329  0.93064847  0.46625880    -0.34800
N174        N  0.67115191  0.94147225  0.43747100    -0.29100
C175        C  0.67563996  0.93044545  0.39995447    -0.05200
C176        C  0.69882602  0.91176384  0.40546617     0.07000
C177        C  0.70769757  0.91231780  0.44785871     0.00800
H178        H  0.66293388  0.93562140  0.37080947     0.08500
H179        H  0.72574055  0.90057295  0.46396100     0.07600
N180        N  0.60790889  0.99859161  0.47227383    -0.36300
N181        N  0.60899041  0.00655226  0.51169431    -0.28500
C182        C  0.58552922  0.02419856  0.51641656    -0.03700
C183        C  0.56897050  0.02773156  0.47808271     0.04900
C184        C  0.58347827  0.01096232  0.45092247     0.03000
H185        H  0.57996455  0.03304848  0.54612871     0.08100
H186        H  0.57643743  0.00777345  0.41824020     0.07000
N187        N  0.81086388  0.97667806  0.87130158    -0.27400
N188        N  0.78856575  0.96059253  0.88574387    -0.35300
C189        C  0.76428823  0.95640908  0.85602284     0.00900
C190        C  0.77145188  0.97074039  0.82119227     0.06900
C191        C  0.80138270  0.98318610  0.83197435    -0.06200
H192        H  0.74441985  0.94277214  0.85867698     0.07600
H193        H  0.81583914  0.99551053  0.81213072     0.08800
Cu194      Cu  0.79475718  0.94324223  0.94322928     0.44200
Cu195      Cu  0.85454685  0.98737854  0.90476918     0.42000
Cu196      Cu  0.87424555  0.95532790  0.00232465     0.43900
N197        N  0.80833486  0.92579454  0.99869070    -0.34800
N198        N  0.83752814  0.92960786  0.01976808    -0.29100
C199        C  0.83771827  0.91554165  0.05446016    -0.05200
C200        C  0.80727235  0.90218653  0.05504241     0.07000
C201        C  0.78918651  0.90937092  0.01943918     0.00800
H202        H  0.85763537  0.91602828  0.07858481     0.08500
H203        H  0.76357770  0.90346059  0.00978556     0.07600
N204        N  0.90376754  0.98384398  0.97917007    -0.36300
N205        N  0.89618389  0.99549009  0.94387462    -0.28500
C206        C  0.91861356  0.01376551  0.93894162    -0.03700
C207        C  0.94172039  0.01360272  0.97244596     0.04900
C208        C  0.93138880  0.99445378  0.99754899     0.03000
H209        H  0.91773929  0.02656992  0.91320945     0.08100
H210        H  0.94193365  0.98929598  0.02793509     0.07000
C211        C  0.75582222  0.84680798  0.19650534     0.80100
N212        N  0.75729502  0.82253251  0.19872317    -0.78200
C213        C  0.75097859  0.81116403  0.23606034     0.82500
N214        N  0.74353569  0.82420988  0.27136257    -0.78200
C215        C  0.74109374  0.84850015  0.26921692     0.82600
N216        N  0.74767267  0.85956133  0.23169266    -0.79900
C217        C  0.76059737  0.89134908  0.10574403    -0.20500
C218        C  0.79394972  0.88666512  0.08952647    -0.07000
C219        C  0.81343024  0.86737956  0.10625964     0.13800
C220        C  0.79962044  0.85395111  0.14005501    -0.20500
C221        C  0.76711219  0.85957041  0.15781412    -0.07000
C222        C  0.74702943  0.87818222  0.13988662     0.13800
C223        C  0.71103678  0.88393525  0.15608086    -0.23900
H224        H  0.74541988  0.90584232  0.09231712     0.15100
H225        H  0.81476874  0.83947660  0.15360139     0.15200
C226        C  0.84830187  0.86050780  0.08802654    -0.23800
H227        H  0.69830668  0.89805492  0.13674864     0.05400
H228        H  0.71234647  0.89055882  0.18915290     0.08600
H229        H  0.69449218  0.86762699  0.15484105     0.08600
H230        H  0.86737865  0.87513527  0.09295756     0.08600
H231        H  0.84568523  0.85686150  0.05360653     0.08600
H232        H  0.85887596  0.84414196  0.10334802     0.05400
C233        C  0.70408576  0.97026972  0.73253991    -0.20500
C234        C  0.72559763  0.96838899  0.69667065    -0.07000
C235        C  0.76215618  0.96828836  0.70195932     0.13800
C236        C  0.77610753  0.96912759  0.74297514    -0.20500
C237        C  0.75461938  0.97012279  0.77895659    -0.07000
C238        C  0.71807147  0.97109173  0.77363508     0.13800
C239        C  0.69370074  0.97401958  0.81077045    -0.23900
H240        H  0.67610100  0.97092021  0.72835553     0.15100
H241        H  0.80411652  0.96879533  0.74699548     0.15200
C242        C  0.78674548  0.96841819  0.66465561    -0.23800
H243        H  0.66635471  0.97655461  0.80034441     0.05400
H244        H  0.70131827  0.98997513  0.82959394     0.08600
H245        H  0.69428019  0.95783890  0.83107293     0.08600
H246        H  0.78034545  0.98355119  0.64319146     0.08600
H247        H  0.78501087  0.95126968  0.64717895     0.08600
H248        H  0.81424344  0.97057803  0.67476426     0.05400
C249        C  0.74384952  0.88727413  0.30769375    -0.20500
C250        C  0.73201382  0.86337936  0.30697949    -0.07000
C251        C  0.71055064  0.85517085  0.34075506     0.13800
C252        C  0.70096862  0.87120727  0.37320690    -0.20500
C253        C  0.71183649  0.89518149  0.37257556    -0.07000
C254        C  0.73400865  0.90320257  0.33989747     0.13800
C255        C  0.74765230  0.92852894  0.33920872    -0.23900
H256        H  0.76074778  0.89370202  0.28258869     0.15100
H257        H  0.68405113  0.86521081  0.39864151     0.15200
C258        C  0.69636594  0.82999464  0.34226752    -0.23800
H259        H  0.76550990  0.93166539  0.31202615     0.05400
H260        H  0.76222148  0.93218592  0.36884771     0.08600
H261        H  0.72571490  0.94135108  0.33650234     0.08600
H262        H  0.71803801  0.81698157  0.34536240     0.08600
H263        H  0.68127383  0.82621375  0.31307113     0.08600
H264        H  0.67872042  0.82725171  0.36978712     0.05400
C265        C  0.71706090  0.72513789  0.09471508    -0.20500
C266        C  0.70861071  0.70117303  0.10337198    -0.07000
C267        C  0.71269479  0.69234193  0.14501250     0.13800
C268        C  0.72402416  0.70790448  0.17698377    -0.20500
C269        C  0.73179442  0.73217456  0.16889655    -0.07000
C270        C  0.72848961  0.74080084  0.12669884     0.13800
C271        C  0.73745999  0.76617886  0.11434579    -0.23900
H272        H  0.71437396  0.73172563  0.06256981     0.15100
H273        H  0.72669929  0.70085336  0.20876722     0.15200
C274        C  0.70678998  0.66632289  0.15591631    -0.23800
H275        H  0.73499405  0.76913480  0.07967710     0.05400
H276        H  0.76479891  0.77022152  0.12317515     0.08600
H277        H  0.71945887  0.77889928  0.13017249     0.08600
H278        H  0.72229517  0.65473885  0.13440412     0.08600
H279        H  0.67882068  0.66179073  0.15336271     0.08600
H280        H  0.71477735  0.66218840  0.18891933     0.05400
C281        C  0.79721661  0.63071076  0.73484694    -0.20500
C282        C  0.77713763  0.63254140  0.69789673    -0.07000
C283        C  0.74039482  0.63285370  0.70119665     0.14200
C284        C  0.72488029  0.63255562  0.74144815    -0.20500
C285        C  0.74502213  0.63191440  0.77841479    -0.07000
C286        C  0.78164814  0.63035653  0.77510803     0.13800
C287        C  0.80438320  0.62732402  0.81358219    -0.23900
H288        H  0.82532962  0.62988110  0.73221967     0.15100
H289        H  0.69675003  0.63311417  0.74412025     0.15200
C290        C  0.71724098  0.63245539  0.66270237    -0.23800
H291        H  0.83207636  0.62448293  0.80471906     0.05400
H292        H  0.79563741  0.61150434  0.83214076     0.08600
H293        H  0.80325314  0.64356450  0.83366642     0.08600
H294        H  0.72455320  0.61724914  0.64184280     0.08600
H295        H  0.71940390  0.64952578  0.64502563     0.08600
H296        H  0.68940841  0.63022338  0.67150505     0.05400
C297        C  0.77283530  0.70650771  0.36873682    -0.20500
C298        C  0.80657774  0.71206892  0.38237732    -0.07000
C299        C  0.82513591  0.73088221  0.36266002     0.13800
C300        C  0.80968368  0.74340494  0.32901496    -0.20500
C301        C  0.77652871  0.73713816  0.31413927    -0.07000
C302        C  0.75770959  0.71860626  0.33445246     0.13800
C303        C  0.72150281  0.71180414  0.32060914    -0.23900
H304        H  0.75862430  0.69219063  0.38432187     0.15100
H305        H  0.82393559  0.75770081  0.31342975     0.15200
C306        C  0.86089132  0.73804511  0.37751695    -0.23800
H307        H  0.70997846  0.69785694  0.34150322     0.05400
H308        H  0.72212400  0.70449676  0.28797289     0.08600
H309        H  0.70432719  0.72778697  0.32161147     0.08600
H310        H  0.87935378  0.72298458  0.37305655     0.08600
H311        H  0.85987389  0.74296305  0.41157613     0.08600
H312        H  0.87110238  0.75367946  0.35956233     0.05400
C313        C  0.95961984  0.05614300  0.97723872    -0.20500
C314        C  0.96878101  0.03189256  0.98110127    -0.07000
C315        C  0.00354097  0.02580391  0.99105265     0.13800
C316        C  0.02818625  0.04414802  0.99666486    -0.20500
C317        C  0.01909580  0.06837216  0.99213967    -0.07000
C318        C  0.98421551  0.07446843  0.98292937     0.13800
C319        C  0.97237456  0.10018376  0.98072565    -0.23900
H320        H  0.93289243  0.06078013  0.96996970     0.15100
H321        H  0.05493402  0.03954786  0.00389947     0.15200
C322        C  0.01522165  0.00009156  0.99396606    -0.23800
H323        H  0.94375605  0.10154268  0.97640845     0.05400
H324        H  0.98482057  0.10938937  0.95352113     0.08600
H325        H  0.97918653  0.10957814  0.01057620     0.08600
H326        H  0.00894778  0.99055781  0.96408112     0.08600
H327        H  0.00215070  0.99107857  0.02095290     0.08600
H328        H  0.04373691  0.99869942  0.99916207     0.05400
C329        C  0.20993695  0.24895713  0.83417262    -0.20500
C330        C  0.21246068  0.23677824  0.79521855    -0.07000
C331        C  0.19945915  0.21292139  0.79275509     0.13800
C332        C  0.18598149  0.20193738  0.82927934    -0.20500
C333        C  0.18462577  0.21391234  0.86821505    -0.07000
C334        C  0.19603386  0.23795514  0.87049396     0.13800
C335        C  0.19232016  0.25254061  0.91044059    -0.23900
H336        H  0.21908742  0.26727516  0.83650888     0.15100
H337        H  0.17674628  0.18360477  0.82752792     0.15200
C338        C  0.19852410  0.19879388  0.75203370    -0.23800
H339        H  0.19938338  0.27161959  0.90517181     0.05400
H340        H  0.20979736  0.24558769  0.93539833     0.08600
H341        H  0.16491632  0.25197214  0.92167760     0.08600
H342        H  0.22534835  0.19507059  0.74073499     0.08600
H343        H  0.18368087  0.20887642  0.72777164     0.08600
H344        H  0.18545919  0.18117580  0.75612359     0.05400
C345        C  0.51016955  0.08252502  0.47369093    -0.20500
C346        C  0.47943260  0.07255079  0.45753972    -0.07000
C347        C  0.47867584  0.04795546  0.44671389     0.13800
C348        C  0.50863859  0.03395235  0.45272213    -0.20500
C349        C  0.53913218  0.04381962  0.46974868    -0.07000
C350        C  0.54013405  0.06852964  0.47962827     0.13800
C351        C  0.57299059  0.08043845  0.49497901    -0.23900
H352        H  0.51075708  0.10143732  0.48148455     0.15100
H353        H  0.50796531  0.01500239  0.44524510     0.15200
C354        C  0.44596000  0.03606028  0.43089841    -0.23800
H355        H  0.56968873  0.10012471  0.49821702     0.05400
H356        H  0.59442819  0.07717001  0.47203858     0.08600
H357        H  0.58038501  0.07336137  0.52648124     0.08600
H358        H  0.43865703  0.04343879  0.39957148     0.08600
H359        H  0.42441350  0.03898749  0.45383325     0.08600
H360        H  0.44944318  0.01642766  0.42701296     0.05400
C361        C  0.23293043  0.14487241  0.26555433    -0.20500
C362        C  0.26926896  0.14626141  0.26174256    -0.07000
C363        C  0.28457113  0.14778368  0.22105013     0.13800
C364        C  0.26307638  0.14734681  0.18521119    -0.20500
C365        C  0.22680638  0.14526260  0.18900350    -0.07000
C366        C  0.21145489  0.14428870  0.22972088     0.13800
C367        C  0.17252961  0.14367430  0.23579940    -0.23900
H368        H  0.22128034  0.14406040  0.29684566     0.15100
H369        H  0.27467100  0.14851020  0.15392175     0.15200
C370        C  0.32325948  0.15089715  0.21510828    -0.23800
H371        H  0.16520371  0.14485848  0.26980091     0.05400
H372        H  0.16173624  0.12665175  0.22348004     0.08600
H373        H  0.16040445  0.15904945  0.21908189     0.08600
H374        H  0.33724874  0.13471424  0.22611206     0.08600
H375        H  0.33236536  0.16679120  0.23309476     0.08600
H376        H  0.33022338  0.15363225  0.18126860     0.05400
C377        C  0.30150804  0.23696869  0.64337166    -0.20500
C378        C  0.26598941  0.23546266  0.65338878    -0.07000
C379        C  0.24432923  0.21975906  0.63021892     0.13800
C380        C  0.25903807  0.20533321  0.59858296    -0.20500
C381        C  0.29475301  0.20625518  0.58941462    -0.07000
C382        C  0.31621756  0.22251106  0.61163361     0.13800
C383        C  0.35430161  0.22522941  0.60114732    -0.23900
H384        H  0.31792111  0.24917951  0.66105977     0.15100
H385        H  0.24243224  0.19326775  0.58082561     0.15200
C386        C  0.20552617  0.21826607  0.63702101    -0.23800
H387        H  0.36664324  0.23968433  0.62006121     0.05400
H388        H  0.35745265  0.22978665  0.56710028     0.08600
H389        H  0.36833165  0.20834274  0.60813343     0.08600
H390        H  0.19573985  0.23136365  0.66054338     0.08600
H391        H  0.19845605  0.19995083  0.64779258     0.08600
H392        H  0.19199154  0.22201717  0.60669245     0.05400
C393        C  0.51254913  0.52522917  0.01819397    -0.20500
C394        C  0.48706407  0.52297815  0.98672035    -0.07000
C395        C  0.48805416  0.53826914  0.95102542     0.13800
C396        C  0.51458492  0.55545226  0.94781378    -0.20500
C397        C  0.53992368  0.55784867  0.97944561    -0.07000
C398        C  0.53923337  0.54230468  0.01484300     0.13800
C399        C  0.56724038  0.54283199  0.04818664    -0.23900
H400        H  0.51171826  0.51336062  0.04539306     0.15100
H401        H  0.51533280  0.56733911  0.92063970     0.15200
C402        C  0.46052744  0.53730114  0.91713081    -0.23800
H403        H  0.56400921  0.52808326  0.07152428     0.05400
H404        H  0.56622309  0.55990497  0.06599470     0.08600
H405        H  0.59319894  0.54077796  0.03306406     0.08600
H406        H  0.43435563  0.53954708  0.93159911     0.08600
H407        H  0.46180626  0.51996130  0.90014085     0.08600
H408        H  0.46411045  0.55171281  0.89321843     0.05400
C409        C  0.27975747  0.34975613  0.83457483    -0.20500
C410        C  0.27954393  0.36101335  0.79471882    -0.07000
C411        C  0.29633858  0.38354785  0.79023986     0.13800
C412        C  0.31061169  0.39469194  0.82608496    -0.20500
C413        C  0.30943995  0.38384633  0.86618442    -0.07000
C414        C  0.29480923  0.36066321  0.87014642     0.13800
C415        C  0.29637122  0.34665288  0.91097153    -0.23900
H416        H  0.26787770  0.33224832  0.83811503     0.15100
H417        H  0.32258831  0.41218285  0.82276638     0.15200
C418        C  0.30089792  0.39567289  0.74785396    -0.23800
H419        H  0.28790160  0.32779038  0.90648011     0.05400
H420        H  0.27878800  0.35459224  0.93494250     0.08600
H421        H  0.32349628  0.34630783  0.92302508     0.08600
H422        H  0.27541945  0.40155435  0.73536007     0.08600
H423        H  0.31354761  0.38319584  0.72517233     0.08600
H424        H  0.31755816  0.41189564  0.75015187     0.05400
C425        C  0.97547574  0.55375539  0.44518608    -0.20500
C426        C  0.98065012  0.56670822  0.48272847    -0.07000
C427        C  0.00930362  0.56112897  0.50892322     0.13800
C428        C  0.03154122  0.54229770  0.49741049    -0.20500
C429        C  0.02612496  0.52913034  0.46017664    -0.07000
C430        C  0.99775646  0.53490871  0.43366403     0.13800
C431        C  0.98992304  0.52063109  0.39432311    -0.23900
H432        H  0.95338222  0.55805935  0.42529037     0.15100
H433        H  0.05355843  0.53794802  0.51740384     0.15200
C434        C  0.01737382  0.57549288  0.54811606    -0.23800
H435        H  0.96556678  0.52675139  0.37883162     0.05400
H436        H  0.98673816  0.50141466  0.40263268     0.08600
H437        H  0.01134155  0.52263916  0.37100226     0.08600
H438        H  0.99639351  0.57328005  0.57194459     0.08600
H439        H  0.02004282  0.59473507  0.53972987     0.08600
H440        H  0.04208289  0.56963346  0.56308958     0.05400
C441        C  0.24299528  0.44930781  0.18540798    -0.20500
C442        C  0.27925139  0.45100224  0.18996383    -0.07000
C443        C  0.29366973  0.45294078  0.23101044     0.13800
C444        C  0.27131833  0.45381444  0.26618095    -0.20500
C445        C  0.23503387  0.45274668  0.26150075    -0.07000
C446        C  0.22067118  0.45008624  0.22059078     0.13800
C447        C  0.18212559  0.44689137  0.21375225    -0.23900
H448        H  0.23200928  0.44742938  0.15398814     0.15100
H449        H  0.28226641  0.45536923  0.29768255     0.15200
C450        C  0.33242924  0.45293801  0.23838313    -0.23800
H451        H  0.17602683  0.44290659  0.18010480     0.05400
H452        H  0.16803529  0.46351389  0.22224368     0.08600
H453        H  0.17236763  0.43173060  0.23326096     0.08600
H454        H  0.34424151  0.46956602  0.22569793     0.08600
H455        H  0.34440106  0.43707168  0.22295366     0.08600
H456        H  0.33877620  0.45216980  0.27267163     0.05400
C457        C  0.18901682  0.39639161  0.62500290    -0.20500
C458        C  0.19417867  0.38705534  0.58417959    -0.07000
C459        C  0.21040712  0.36441668  0.57965355     0.13800
C460        C  0.22287226  0.35256665  0.61575864    -0.20500
C461        C  0.21913195  0.36241060  0.65643302    -0.07000
C462        C  0.20089714  0.38430470  0.66120073     0.13800
C463        C  0.19227256  0.39456920  0.70414442    -0.23900
H464        H  0.17579829  0.41341591  0.62865010     0.15100
H465        H  0.23597642  0.33549813  0.61206909     0.15200
C466        C  0.21336788  0.35194341  0.53743204    -0.23800
H467        H  0.17522134  0.41057326  0.70167114     0.05400
H468        H  0.21627188  0.40026214  0.72060475     0.08600
H469        H  0.17835450  0.38096093  0.72350614     0.08600
H470        H  0.23267085  0.36111364  0.51701225     0.08600
H471        H  0.18759019  0.35148617  0.52162341     0.08600
H472        H  0.22234174  0.33313575  0.54103995     0.05400
loop_ 
_geom_bond_atom_site_label_1 
_geom_bond_atom_site_label_2 
_geom_bond_distance 
_geom_bond_site_symmetry_2 
_ccdc_geom_bond_type 
N1            N2   1.321       .  A
N1            C5   1.345       .  A
N1           Cu9   2.071       .  S
N2            C3   1.342       .  A
N2           Cu8   2.061       .  S
C3            C4   1.382       .  A
C3            H6   1.082       .  S
C4            C5   1.386       .  A
C4          C445   1.478       .  S
C5            H7   1.080       .  S
Cu8          N11   2.061       .  S
Cu9          N19   2.072       .  S
Cu10         N12   2.074       .  S
Cu10         N18   2.075       .  S
N11          N12   1.320       .  A
N11          C15   1.342       .  A
N12          C13   1.345       .  A
C13          C14   1.388       .  A
C13          H16   1.082       .  S
C14          C15   1.384       .  A
C14         C458   1.484       .  S
C15          H17   1.079       .  S
N18          N19   1.323       .  A
N18          C22   1.344       .  A
N19          C20   1.345       .  A
C20          C21   1.383       .  A
C20          H23   1.081       .  S
C21          C22   1.383       .  A
C21         C429   1.477       .  S
C22          H24   1.082       .  S
N25          N26   1.320       .  A
N25          C29   1.344       .  A
N25         Cu33   2.065       .  S
N26          C27   1.343       .  A
N26         Cu32   2.065       .  S
C27          C28   1.384       .  A
C27          H30   1.082       .  S
C28          C29   1.385       .  A
C28         C442   1.479       .  S
C29          H31   1.080       .  S
Cu32         N35   2.066   1_554  S
Cu33         N43   2.065       .  S
Cu34         N36   2.074       .  S
Cu34         N42   2.074       .  S
N35          N36   1.321       .  A
N35          C39   1.343       .  A
N36          C37   1.345       .  A
C37          C38   1.387       .  A
C37          H40   1.082       .  S
C38          C39   1.385       .  A
C38         C413   1.485       .  S
C39          H41   1.079       .  S
N42          N43   1.322   1_556  A
N42          C46   1.345       .  A
N43          C44   1.343       .  A
C44          C45   1.381   1_554  A
C44          H47   1.082       .  S
C45          C46   1.384       .  A
C45         C394   1.476       .  S
C46          H48   1.081       .  S
C49          N50   1.359       .  A
C49          N54   1.361       .  A
C49         C410   1.489       .  S
N50          C51   1.358       .  A
C51          N52   1.358       .  A
C51         C461   1.484       .  S
N52          C53   1.356       .  A
C53          N54   1.357       .  A
C53         C105   1.462       .  S
N55          N56   1.320       .  A
N55          C59   1.344       .  A
N55         Cu63   2.066       .  S
N56          C57   1.343       .  A
N56         Cu62   2.063       .  S
C57          C58   1.383       .  A
C57          H60   1.082       .  S
C58          C59   1.384       .  A
C58         C362   1.477       .  S
C59          H61   1.081       .  S
Cu62         N65   2.064       .  S
Cu63         N73   2.067       .  S
Cu64         N66   2.083       .  S
Cu64         N72   2.084       .  S
N65          N66   1.323       .  A
N65          C69   1.343       .  A
N66          C67   1.347       .  A
C67          C68   1.385       .  A
C67          H70   1.081       .  S
C68          C69   1.380       .  A
C68         C381   1.477       .  S
C69          H71   1.082       .  S
N72          N73   1.322       .  A
N72          C76   1.346       .  A
N73          C74   1.344       .  A
C74          C75   1.382       .  A
C74          H77   1.081       .  S
C75          C76   1.386       .  A
C75         C346   1.480       .  S
C76          H78   1.082       .  S
N79          N80   1.321       .  A
N79          C83   1.344       .  A
N79         Cu87   2.070       .  S
N80          C81   1.343       .  A
N80         Cu86   2.064       .  S
C81          C82   1.382       .  A
C81          H84   1.082       .  S
C82          C83   1.384       .  A
C82         C365   1.476       .  S
C83          H85   1.081       .  S
Cu86         N89   2.064   1_554  S
Cu87         N97   2.070       .  S
Cu88         N90   2.079       .  S
Cu88         N96   2.079       .  S
N89          N90   1.321       .  A
N89          C93   1.343       .  A
N90          C91   1.345       .  A
C91          C92   1.387       .  A
C91          H94   1.082       .  S
C92          C93   1.384       .  A
C92         C333   1.482       .  S
C93          H95   1.080       .  S
N96          N97   1.322   1_556  A
N96         C100   1.346       .  A
N97          C98   1.344       .  A
C98          C99   1.383   1_554  A
C98         H101   1.082       .  S
C99         C100   1.386       .  A
C99         C317   1.481       .  S
C100        H102   1.081       .  S
C103        N104   1.361       .  A
C103        N108   1.356       .  A
C103        C330   1.495       .  S
N104        C105   1.359       .  A
C105        N106   1.358       .  A
N106        C107   1.357       .  A
C107        N108   1.355       .  A
C107        C378   1.472       .  S
N109        N110   1.321       .  A
N109        C113   1.344       .  A
N109       Cu117   2.069       .  S
N110        C111   1.343       .  A
N110       Cu116   2.066       .  S
C111        C112   1.384       .  A
C111        H114   1.080       .  S
C112        C113   1.385       .  A
C112        C282   1.479       .  S
C113        H115   1.082       .  S
Cu116       N119   2.066       .  S
Cu117       N127   2.069       .  S
Cu118       N120   2.076       .  S
Cu118       N126   2.076       .  S
N119        N120   1.322       .  A
N119        C123   1.344       .  A
N120        C121   1.345       .  A
C121        C122   1.383       .  A
C121        H124   1.082       .  S
C122        C123   1.381       .  A
C122        C298   1.474       .  S
C123        H125   1.082       .  S
N126        N127   1.322       .  A
N126        C130   1.345       .  A
N127        C128   1.343       .  A
C128        C129   1.382       .  A
C128        H131   1.081       .  S
C129        C130   1.384       .  A
C129        C426   1.477       .  S
C130        H132   1.082       .  S
N133        N134   1.322       .  A
N133        C137   1.342       .  A
N133       Cu141   2.061       .  S
N134        C135   1.345       .  A
N134       Cu140   2.075       .  S
C135        C136   1.385       .  A
C135        H138   1.081       .  S
C136        C137   1.381       .  A
C136        C285   1.477       .  S
C137        H139   1.082       .  S
Cu140       N143   2.075   1_556  S
Cu141       N151   2.061       .  S
Cu142       N144   2.072       .  S
Cu142       N150   2.071   1_554  S
N143        N144   1.322       .  A
N143        C147   1.345       .  A
N144        C145   1.344       .  A
C145        C146   1.385       .  A
C145        H148   1.080       .  S
C146        C147   1.385       .  A
C146        C266   1.482       .  S
C147        H149   1.082       .  S
N150        N151   1.321       .  A
N150        C154   1.344   1_556  A
N151        C152   1.343       .  A
C152        C153   1.382       .  A
C152        H155   1.082       .  S
C153        C154   1.385   1_556  A
C153        C397   1.477       .  S
C154        H156   1.081       .  S
C157        N158   1.360       .  A
C157        N162   1.359       .  A
C157        C269   1.498       .  S
N158        C159   1.360       .  A
C159        N160   1.358       .  A
C159        C213   1.469       .  S
N160        C161   1.358       .  A
C161        N162   1.355       .  A
C161        C301   1.475       .  S
N163        N164   1.322       .  A
N163        C167   1.345       .  A
N163       Cu171   2.072       .  S
N164        C165   1.345       .  A
N164       Cu170   2.079       .  S
C165        C166   1.386       .  A
C165        H168   1.081       .  S
C166        C167   1.384       .  A
C166        C234   1.483       .  S
C167        H169   1.082       .  S
Cu170       N173   2.079       .  S
Cu171       N181   2.071   1_565  S
Cu172       N174   2.084       .  S
Cu172       N180   2.083       .  S
N173        N174   1.324       .  A
N173        C177   1.347       .  A
N174        C175   1.346       .  A
C175        C176   1.383       .  A
C175        H178   1.082       .  S
C176        C177   1.382       .  A
C176        C253   1.478       .  S
C177        H179   1.082       .  S
N180        N181   1.322   1_565  A
N180        C184   1.347   1_565  A
N181        C182   1.344       .  A
C182        C183   1.383       .  A
C182        H185   1.081       .  S
C183        C184   1.386       .  A
C183        C349   1.481       .  S
C184        H186   1.082       .  S
N187        N188   1.320       .  A
N187        C191   1.344       .  A
N187       Cu195   2.073       .  S
N188        C189   1.345       .  A
N188       Cu194   2.070       .  S
C189        C190   1.386       .  A
C189        H192   1.080       .  S
C190        C191   1.386       .  A
C190        C237   1.484       .  S
C191        H193   1.082       .  S
Cu194       N197   2.071       .  S
Cu195       N205   2.073       .  S
Cu196       N198   2.084       .  S
Cu196       N204   2.084   1_554  S
N197        N198   1.323   1_556  A
N197        C201   1.344   1_556  A
N198        C199   1.347       .  A
C199        C200   1.386       .  A
C199        H202   1.081       .  S
C200        C201   1.382       .  A
C200        C218   1.480       .  S
C201        H203   1.082       .  S
N204        N205   1.323       .  A
N204        C208   1.348       .  A
N205        C206   1.343   1_565  A
C206        C207   1.383       .  A
C206        H209   1.082       .  S
C207        C208   1.387   1_545  A
C207        C314   1.482       .  S
C208        H210   1.081   1_556  S
C211        N212   1.358       .  A
C211        N216   1.356       .  A
C211        C221   1.477       .  S
N212        C213   1.359       .  A
C213        N214   1.361       .  A
N214        C215   1.361       .  A
C215        N216   1.358       .  A
C215        C250   1.494       .  S
C217        C218   1.403       .  A
C217        C222   1.403       .  A
C217        H224   1.084       .  S
C218        C219   1.414       .  A
C219        C220   1.406       .  A
C219        C226   1.507       .  S
C220        C221   1.403       .  A
C220        H225   1.084       .  S
C221        C222   1.413       .  A
C222        C223   1.508       .  S
C223        H227   1.111       .  S
C223        H228   1.109       .  S
C223        H229   1.110       .  S
C226        H230   1.108       .  S
C226        H231   1.110       .  S
C226        H232   1.111       .  S
C233        C234   1.404       .  A
C233        C238   1.406       .  A
C233        H240   1.084       .  S
C234        C235   1.415       .  A
C235        C236   1.403       .  A
C235        C242   1.508       .  S
C236        C237   1.403       .  A
C236        H241   1.084       .  S
C237        C238   1.416       .  A
C238        C239   1.507       .  S
C239        H243   1.111       .  S
C239        H244   1.110       .  S
C239        H245   1.107       .  S
C242        H246   1.110       .  S
C242        H247   1.107       .  S
C242        H248   1.111       .  S
C249        C250   1.409       .  A
C249        C254   1.402       .  A
C249        H256   1.084       .  S
C250        C251   1.421       .  A
C251        C252   1.409       .  A
C251        C258   1.507       .  S
C252        C253   1.401       .  A
C252        H257   1.084       .  S
C253        C254   1.408       .  A
C254        C255   1.507       .  S
C255        H259   1.111       .  S
C255        H260   1.110       .  S
C255        H261   1.109       .  S
C258        H262   1.110       .  S
C258        H263   1.110       .  S
C258        H264   1.111       .  S
C265        C266   1.402       .  A
C265        C270   1.407       .  A
C265        H272   1.084       .  S
C266        C267   1.413       .  A
C267        C268   1.402       .  A
C267        C274   1.509       .  S
C268        C269   1.410       .  A
C268        H273   1.083       .  S
C269        C270   1.422       .  A
C270        C271   1.508       .  S
C271        H275   1.111       .  S
C271        H276   1.110       .  S
C271        H277   1.110       .  S
C274        H278   1.110       .  S
C274        H279   1.107       .  S
C274        H280   1.111       .  S
C281        C282   1.404       .  A
C281        C286   1.403       .  A
C281        H288   1.084       .  S
C282        C283   1.415       .  A
C283        C284   1.402       .  A
C283        C290   1.508       .  S
C284        C285   1.402       .  A
C284        H289   1.084       .  S
C285        C286   1.413       .  A
C286        C287   1.507       .  S
C287        H291   1.111       .  S
C287        H292   1.110       .  S
C287        H293   1.107       .  S
C290        H294   1.110       .  S
C290        H295   1.107       .  S
C290        H296   1.111       .  S
C297        C298   1.402       .  A
C297        C302   1.403       .  A
C297        H304   1.084       .  S
C298        C299   1.412       .  A
C299        C300   1.404       .  A
C299        C306   1.506       .  S
C300        C301   1.403       .  A
C300        H305   1.084       .  S
C301        C302   1.414       .  A
C302        C303   1.507       .  S
C303        H307   1.111       .  S
C303        H308   1.108       .  S
C303        H309   1.110       .  S
C306        H310   1.109       .  S
C306        H311   1.110       .  S
C306        H312   1.111       .  S
C313        C314   1.404       .  A
C313        C318   1.404       .  A
C313        H320   1.084       .  S
C314        C315   1.414   1_655  A
C315        C316   1.405       .  A
C315        C322   1.507       .  S
C316        C317   1.404       .  A
C316        H321   1.084   1_556  S
C317        C318   1.414   1_455  A
C318        C319   1.507       .  S
C319        H323   1.111       .  S
C319        H324   1.108       .  S
C319        H325   1.110   1_556  S
C322        H326   1.110   1_545  S
C322        H327   1.108   1_546  S
C322        H328   1.111   1_545  S
C329        C330   1.409       .  A
C329        C334   1.404       .  A
C329        H336   1.083       .  S
C330        C331   1.424       .  A
C331        C332   1.403       .  A
C331        C338   1.509       .  S
C332        C333   1.400       .  A
C332        H337   1.084       .  S
C333        C334   1.413       .  A
C334        C335   1.508       .  S
C335        H339   1.111       .  S
C335        H340   1.107       .  S
C335        H341   1.110       .  S
C338        H342   1.109       .  S
C338        H343   1.109       .  S
C338        H344   1.111       .  S
C345        C346   1.402       .  A
C345        C350   1.404       .  A
C345        H352   1.084       .  S
C346        C347   1.415       .  A
C347        C348   1.405       .  A
C347        C354   1.507       .  S
C348        C349   1.403       .  A
C348        H353   1.084       .  S
C349        C350   1.415       .  A
C350        C351   1.507       .  S
C351        H355   1.111       .  S
C351        H356   1.110       .  S
C351        H357   1.107       .  S
C354        H358   1.108       .  S
C354        H359   1.110       .  S
C354        H360   1.111       .  S
C361        C362   1.403       .  A
C361        C366   1.402       .  A
C361        H368   1.084       .  S
C362        C363   1.414       .  A
C363        C364   1.403       .  A
C363        C370   1.507       .  S
C364        C365   1.403       .  A
C364        H369   1.084       .  S
C365        C366   1.414       .  A
C366        C367   1.507       .  S
C367        H371   1.111       .  S
C367        H372   1.107       .  S
C367        H373   1.110       .  S
C370        H374   1.107       .  S
C370        H375   1.110       .  S
C370        H376   1.111       .  S
C377        C378   1.402       .  A
C377        C382   1.405       .  A
C377        H384   1.084       .  S
C378        C379   1.414       .  A
C379        C380   1.401       .  A
C379        C386   1.508       .  S
C380        C381   1.402       .  A
C380        H385   1.085       .  S
C381        C382   1.413       .  A
C382        C383   1.507       .  S
C383        H387   1.111       .  S
C383        H388   1.110       .  S
C383        H389   1.108       .  S
C386        H390   1.108       .  S
C386        H391   1.110       .  S
C386        H392   1.110       .  S
C393        C394   1.402   1_554  A
C393        C398   1.403       .  A
C393        H400   1.084       .  S
C394        C395   1.413       .  A
C395        C396   1.402       .  A
C395        C402   1.507       .  S
C396        C397   1.403       .  A
C396        H401   1.084       .  S
C397        C398   1.414   1_556  A
C398        C399   1.507       .  S
C399        H403   1.111       .  S
C399        H404   1.107       .  S
C399        H405   1.110       .  S
C402        H406   1.110       .  S
C402        H407   1.108       .  S
C402        H408   1.111       .  S
C409        C410   1.406       .  A
C409        C414   1.403       .  A
C409        H416   1.084       .  S
C410        C411   1.420       .  A
C411        C412   1.404       .  A
C411        C418   1.509       .  S
C412        C413   1.403       .  A
C412        H417   1.084       .  S
C413        C414   1.415       .  A
C414        C415   1.508       .  S
C415        H419   1.111       .  S
C415        H420   1.106       .  S
C415        H421   1.110       .  S
C418        H422   1.106       .  S
C418        H423   1.110       .  S
C418        H424   1.111       .  S
C425        C426   1.403       .  A
C425        C430   1.404       .  A
C425        H432   1.084       .  S
C426        C427   1.413   1_655  A
C427        C428   1.402       .  A
C427        C434   1.507       .  S
C428        C429   1.403       .  A
C428        H433   1.084       .  S
C429        C430   1.413   1_455  A
C430        C431   1.507       .  S
C431        H435   1.111       .  S
C431        H436   1.110       .  S
C431        H437   1.108   1_655  S
C434        H438   1.108   1_455  S
C434        H439   1.110       .  S
C434        H440   1.111       .  S
C441        C442   1.404       .  A
C441        C446   1.402       .  A
C441        H448   1.084       .  S
C442        C443   1.415       .  A
C443        C444   1.403       .  A
C443        C450   1.508       .  S
C444        C445   1.403       .  A
C444        H449   1.084       .  S
C445        C446   1.414       .  A
C446        C447   1.507       .  S
C447        H451   1.111       .  S
C447        H452   1.107       .  S
C447        H453   1.110       .  S
C450        H454   1.107       .  S
C450        H455   1.110       .  S
C450        H456   1.111       .  S
C457        C458   1.404       .  A
C457        C462   1.404       .  A
C457        H464   1.084       .  S
C458        C459   1.416       .  A
C459        C460   1.403       .  A
C459        C466   1.508       .  S
C460        C461   1.404       .  A
C460        H465   1.084       .  S
C461        C462   1.417       .  A
C462        C463   1.508       .  S
C463        H467   1.111       .  S
C463        H468   1.106       .  S
C463        H469   1.110       .  S
C466        H470   1.106       .  S
C466        H471   1.110       .  S
C466        H472   1.111       .  S
