geometry optimzed in LAMMPS
_audit_creation_date              2020-11-30 
_audit_creation_method            'lammps2cif' 
_symmetry_space_group_name_H-M    'P1' 
_symmetry_Int_Tables_number       1 
_symmetry_cell_setting            triclinic 
loop_ 
_symmetry_equiv_pos_as_xyz 
  x,y,z 
_cell_length_a                    32.30817246 
_cell_length_b                    30.290156012490954 
_cell_length_c                    36.87805537976288 
_cell_angle_alpha                 89.75271405976858 
_cell_angle_beta                  89.95081879258927 
_cell_angle_gamma                 90.0635509953465 
loop_ 
_atom_site_label 
_atom_site_type_symbol 
_atom_site_fract_x 
_atom_site_fract_y 
_atom_site_fract_z 
_atom_site_charge 
C1          C  0.72340119  0.27369174  0.34867595     0.01700
C2          C  0.72240948  0.22707519  0.35037776     0.01600
C3          C  0.75326416  0.20489235  0.36998701    -0.18900
C4          C  0.78528850  0.22767814  0.38775308     0.01700
C5          C  0.78647548  0.27457540  0.38589191     0.01600
C6          C  0.75479051  0.29656942  0.36696818    -0.18900
H7          H  0.75461849  0.33238175  0.36631285     0.03700
H8          H  0.75246848  0.16910055  0.37126200     0.03700
Zr9        Zr  0.50097721  0.42538688  0.28314230     2.17500
O10         O  0.50499547  0.39933483  0.34553334    -0.51900
O11         O  0.49778436  0.35631191  0.25124831    -0.75200
O12         O  0.43527081  0.39254076  0.29969931    -0.81900
O13         O  0.61849201  0.43360424  0.27440818    -0.83700
O14         O  0.38329639  0.43517816  0.27690235    -0.79300
O15         O  0.56673416  0.39121118  0.29797265    -0.90900
O16         O  0.49663210  0.37032986  0.19059438    -0.76900
O17         O  0.45499406  0.43839287  0.23396520    -0.86400
O18         O  0.54378938  0.43692309  0.23153869    -0.86100
O19         O  0.45980319  0.48762441  0.30081447    -0.72800
O20         O  0.54416942  0.48676571  0.29855655    -0.85000
Zr21       Zr  0.50092692  0.57528332  0.21364089     2.26400
Zr22       Zr  0.41497524  0.50173268  0.25011089     2.06300
Zr23       Zr  0.58647691  0.49872421  0.24596774     2.10000
Zr24       Zr  0.49789839  0.45031777  0.18258300     1.78800
O25         O  0.64058528  0.52160406  0.28778730    -0.93800
O26         O  0.43656587  0.42706220  0.14929090    -0.41600
O27         O  0.54132746  0.51269665  0.19565509    -0.78200
O28         O  0.45733031  0.51419950  0.19762540    -0.96900
O29         O  0.45763855  0.56353847  0.26480341    -0.90200
O30         O  0.54650114  0.56153349  0.26299951    -0.93100
C31         C  0.49662273  0.34414961  0.21806967     1.00700
C32         C  0.60514198  0.39955927  0.29202038     1.13600
C33         C  0.39689991  0.40093126  0.29403728     1.04400
O34         O  0.36280800  0.47892618  0.20644404    -0.95200
O35         O  0.38391241  0.56926478  0.22429613    -0.91000
O36         O  0.43617721  0.61307655  0.20359296    -0.84100
C37         C  0.39774696  0.60493852  0.20925220     1.11000
O38         O  0.50115790  0.51748363  0.37472322    -0.97200
Zr39       Zr  0.50300428  0.54991815  0.31409258     1.88900
O40         O  0.50676839  0.64432248  0.24586960    -0.73800
O41         O  0.36388348  0.52726342  0.29391668    -0.53100
O42         O  0.44256224  0.57873256  0.34557445    -0.97800
O43         O  0.56116336  0.57391013  0.35130539    -0.55000
O44         O  0.50663613  0.62978923  0.30645293    -0.74400
C45         C  0.50829656  0.65620992  0.27918184     0.98000
O46         O  0.49597299  0.60004938  0.15079937    -0.63200
O47         O  0.63458370  0.47276443  0.19989728    -0.58000
O48         O  0.56619885  0.60727716  0.19532066    -0.94700
O49         O  0.61804946  0.56413431  0.21746927    -0.93100
O50         O  0.55484191  0.42034941  0.14713984    -0.93400
O51         O  0.50036768  0.47934964  0.12088941    -0.92200
C52         C  0.60459749  0.59854224  0.20042509     1.16800
H53         H  0.56056896  0.41132318  0.22640996     0.32800
H54         H  0.44002201  0.52216456  0.17727808     0.43600
H55         H  0.56457937  0.58632786  0.26743317     0.37200
H56         H  0.44352776  0.48023142  0.32200745     0.33600
H57         H  0.44724544  0.40718601  0.13020650     0.25400
H58         H  0.33684612  0.51920470  0.28315801     0.31400
H59         H  0.45349358  0.60235110  0.36139819     0.37300
H60         H  0.54174743  0.39869237  0.13068341     0.31700
H61         H  0.66078281  0.46749319  0.21312525     0.30600
H62         H  0.66674953  0.51299416  0.27574967     0.32300
H63         H  0.55062838  0.59961849  0.36499721     0.31300
H64         H  0.47758620  0.50112249  0.11957564     0.35300
H65         H  0.51424233  0.57960193  0.13738058     0.28000
H66         H  0.49323639  0.36913803  0.34537721     0.32200
H67         H  0.49847283  0.54259820  0.39165706     0.35100
H68         H  0.62455095  0.44289403  0.19354044     0.27700
H69         H  0.46779442  0.59176966  0.14276123     0.40600
H70         H  0.36834692  0.44719863  0.20237319     0.30600
H71         H  0.42163258  0.40718481  0.16620633     0.38200
H72         H  0.58136678  0.58664009  0.33397327     0.30100
H73         H  0.36682150  0.50744597  0.31516864     0.30100
H74         H  0.48467265  0.41744114  0.35893613     0.30400
Zr75       Zr  0.50061681  0.07448747  0.28452102     2.17500
O76         O  0.50149514  0.10016186  0.34709940    -0.51900
O77         O  0.49525724  0.14360359  0.25231619    -0.75200
O78         O  0.56580394  0.11028008  0.29782295    -0.81900
O79         O  0.38394722  0.06306359  0.28071527    -0.83700
O80         O  0.61752521  0.06870516  0.27369921    -0.79300
O81         O  0.43552347  0.10651410  0.30248942    -0.90900
O82         O  0.49866971  0.12996453  0.19178083    -0.76900
O83         O  0.54445529  0.06316438  0.23352547    -0.86400
O84         O  0.45551662  0.06154995  0.23475012    -0.86100
O85         O  0.54381793  0.01335740  0.30080146    -0.72800
O86         O  0.45925231  0.01211793  0.30185965    -0.85000
Zr87       Zr  0.50073051  0.92523882  0.21527937     2.26400
Zr88       Zr  0.58666349  0.00083175  0.24860810     2.06300
Zr89       Zr  0.41501488  0.99844053  0.25087631     2.10000
Zr90       Zr  0.49912372  0.05001771  0.18400331     1.78800
O91         O  0.36350822  0.97102811  0.29360531    -0.93800
O92         O  0.55554629  0.07543374  0.14529585    -0.41600
O93         O  0.45790878  0.98638643  0.19869031    -0.78200
O94         O  0.54217623  0.98747117  0.19758814    -0.96900
O95         O  0.54572379  0.93818203  0.26495557    -0.90200
O96         O  0.45735748  0.93669375  0.26644608    -0.93100
C97         C  0.49555249  0.15594340  0.21906741     1.00700
C98         C  0.39712776  0.09771521  0.29736814     1.13600
C99         C  0.60404432  0.10301192  0.29068708     1.04400
O100        O  0.63756173  0.02484811  0.20388799    -0.95200
O101        O  0.61786141  0.93260623  0.22401612    -0.91000
O102        O  0.56576918  0.89069767  0.20073729    -0.84100
C103        C  0.60404691  0.89809562  0.20739547     1.11000
O104        O  0.50556244  0.98267261  0.37637201    -0.97200
Zr105      Zr  0.50247740  0.95010748  0.31606035     1.88900
O106        O  0.50312945  0.85695374  0.24872893    -0.73800
O107        O  0.63907326  0.97824075  0.29241310    -0.53100
O108        O  0.56378344  0.92453179  0.34829906    -0.97800
O109        O  0.44460675  0.92510327  0.35341998    -0.55000
O110        O  0.50328871  0.87016817  0.30939203    -0.74400
C111        C  0.50407506  0.84434576  0.28189788     0.98000
O112        O  0.50175155  0.89667510  0.15351993    -0.63200
O113        O  0.36374135  0.02404682  0.20726317    -0.58000
O114        O  0.43548340  0.89140582  0.19900986    -0.94700
O115        O  0.38336463  0.93290388  0.22268402    -0.93100
O116        O  0.43658127  0.07419594  0.15298560    -0.93400
O117        O  0.49619539  0.02300041  0.12195893    -0.92200
C118        C  0.39710238  0.89910925  0.20519080     1.16800
H119        H  0.43770050  0.08652634  0.23016259     0.32800
H120        H  0.55844718  0.98006426  0.17651707     0.43600
H121        H  0.44043625  0.91108229  0.27143409     0.37200
H122        H  0.56073016  0.02122457  0.32135581     0.33600
H123        H  0.54347033  0.09972305  0.13069444     0.25400
H124        H  0.66430784  0.99472744  0.28529096     0.31400
H125        H  0.58190066  0.91203309  0.32926929     0.37300
H126        H  0.44512700  0.10061290  0.13894617     0.31700
H127        H  0.33686169  0.02049232  0.21985254     0.30600
H128        H  0.33660376  0.97968468  0.28290311     0.32300
H129        H  0.45354514  0.89638458  0.36363859     0.31300
H130        H  0.49409222  0.99053600  0.12446291     0.35300
H131        H  0.47759888  0.91034556  0.14138723     0.28000
H132        H  0.50947424  0.13169823  0.34574504     0.32200
H133        H  0.50565524  0.95745979  0.39355279     0.35100
H134        H  0.36797038  0.05637142  0.20568382     0.27700
H135        H  0.52590596  0.91097757  0.14179989     0.40600
H136        H  0.62965318  0.00977899  0.18115741     0.30600
H137        H  0.57503955  0.09028025  0.16198493     0.38200
H138        H  0.42238521  0.91750423  0.33606954     0.30100
H139        H  0.63049801  0.99163720  0.31566562     0.30100
H140        H  0.52550795  0.08523461  0.35844148     0.30400
C141        C  0.28232135  0.27351467  0.35424573     0.01700
C142        C  0.28365382  0.22686430  0.35715772     0.01600
C143        C  0.25304155  0.20502227  0.37743274    -0.18900
C144        C  0.22116137  0.22803662  0.39491861     0.01700
C145        C  0.21997654  0.27469487  0.39231997     0.01600
C146        C  0.25058610  0.29653478  0.37198503    -0.18900
H147        H  0.24996424  0.33230514  0.37025646     0.03700
H148        H  0.25373036  0.16925776  0.37924257     0.03700
Zr149      Zr  0.00127096  0.57415675  0.03240429     2.17500
O150        O  0.00137144  0.59953534  0.09509467    -0.51900
O151        O  0.00023795  0.64300752  0.99934875    -0.75200
O152        O  0.06657711  0.60795994  0.04760906    -0.81900
O153        O  0.88431897  0.56513941  0.02946705    -0.83700
O154        O  0.11838670  0.56654780  0.02331160    -0.79300
O155        O  0.93690450  0.60671235  0.05243397    -0.90900
O156        O  0.00336428  0.63079767  0.43942573    -0.76900
O157        O  0.04530151  0.56430204  0.48260783    -0.86400
O158        O  0.95639676  0.56300510  0.48343531    -0.86100
O159        O  0.04479846  0.51277186  0.04753378    -0.72800
O160        O  0.96035203  0.51144907  0.04944054    -0.85000
Zr161      Zr  0.00155659  0.42690713  0.46283949     2.26400
Zr162      Zr  0.08763774  0.50202921  0.49741187     2.06300
Zr163      Zr  0.91558348  0.49991668  0.49942741     2.10000
Zr164      Zr  0.00047661  0.55135690  0.43274530     1.78800
O165        O  0.86613031  0.47226253  0.04461285    -0.93800
O166        O  0.05963521  0.57511481  0.39662573    -0.41600
O167        O  0.95849048  0.48823279  0.44707884    -0.78200
O168        O  0.04341135  0.48910106  0.44615706    -0.96900
O169        O  0.04647300  0.43745206  0.01092642    -0.90200
O170        O  0.95757049  0.43768586  0.01363627    -0.93100
C171        C  0.00077573  0.65660555  0.46672961     1.00700
C172        C  0.89836063  0.59864081  0.04738542     1.13600
C173        C  0.10484618  0.60019122  0.04121297     1.04400
O174        O  0.13951278  0.52923843  0.45488366    -0.95200
O175        O  0.11827384  0.43565672  0.46933828    -0.91000
O176        O  0.06642323  0.39337112  0.44595303    -0.84100
C177        C  0.10472962  0.40169466  0.45184753     1.11000
O178        O  0.00608607  0.48296785  0.12248873    -0.97200
Zr179      Zr  0.00404322  0.44926556  0.06256090     1.88900
O180        O  0.00149586  0.35790136  0.49513301    -0.73800
O181        O  0.13946589  0.47370951  0.03649553    -0.53100
O182        O  0.06791995  0.42542335  0.09166453    -0.97800
O183        O  0.95002443  0.42181903  0.10303475    -0.55000
O184        O  0.00297058  0.36925689  0.05496754    -0.74400
C185        C  0.00106253  0.34358788  0.02737424     0.98000
O186        O  0.00054254  0.40081579  0.40030193    -0.63200
O187        O  0.86366961  0.52652510  0.45677885    -0.58000
O188        O  0.93654314  0.39265888  0.44699902    -0.94700
O189        O  0.88428118  0.43437481  0.47022143    -0.93100
O190        O  0.93946195  0.57858354  0.40099325    -0.93400
O191        O  0.99953540  0.52337535  0.37095023    -0.92200
C192        C  0.89818048  0.40051989  0.45280623     1.16800
H193        H  0.93882535  0.58822633  0.47898572     0.32800
H194        H  0.05981909  0.48208974  0.42508834     0.43600
H195        H  0.94062695  0.41217074  0.01883690     0.37200
H196        H  0.06204236  0.52018713  0.06798745     0.33600
H197        H  0.04867692  0.59849976  0.38044260     0.25400
H198        H  0.16523347  0.48882588  0.02880621     0.31400
H199        H  0.05918640  0.40290307  0.10964611     0.37300
H200        H  0.94996767  0.60220961  0.38477890     0.31700
H201        H  0.83725287  0.52499858  0.47035791     0.30600
H202        H  0.87183293  0.44022060  0.04640936     0.32300
H203        H  0.96298665  0.39706567  0.11646239     0.31300
H204        H  0.97971334  0.49844081  0.37161029     0.35300
H205        H  0.97366748  0.41037467  0.39007752     0.28000
H206        H  0.01015328  0.63084670  0.09411645     0.32200
H207        H  0.01351494  0.45898139  0.13959043     0.35100
H208        H  0.86933462  0.55851191  0.45416362     0.27700
H209        H  0.02085247  0.41989460  0.38766148     0.40600
H210        H  0.12714190  0.52486225  0.43062506     0.30600
H211        H  0.07770459  0.59100170  0.41388477     0.38200
H212        H  0.92955562  0.40752324  0.08693769     0.30100
H213        H  0.13254326  0.48707395  0.06017814     0.30100
H214        H  0.02463628  0.58379149  0.10688214     0.30400
Zr215      Zr  0.00161629  0.07465356  0.46231147     2.17500
O216        O  0.00688048  0.10198664  0.40020117    -0.51900
O217        O  0.99675005  0.14392213  0.49400535    -0.75200
O218        O  0.93697997  0.10794524  0.44480663    -0.81900
O219        O  0.11851974  0.06759730  0.47371274    -0.83700
O220        O  0.88440150  0.06491771  0.46580387    -0.79300
O221        O  0.06706462  0.10958853  0.44946075    -0.90900
O222        O  0.99465470  0.12899889  0.05570925    -0.76900
O223        O  0.95430695  0.06082298  0.01155540    -0.86400
O224        O  0.04342038  0.06191309  0.01461136    -0.86100
O225        O  0.96069749  0.01264418  0.44383850    -0.72800
O226        O  0.04520627  0.01346036  0.44743039    -0.85000
Zr227      Zr  0.99906541  0.92493165  0.03247054     2.26400
Zr228      Zr  0.91445185  0.99843888  0.49376697     2.06300
Zr229      Zr  0.08638140  0.00083851  0.50065367     2.10000
Zr230      Zr  0.99679997  0.04913984  0.06320068     1.78800
O231        O  0.13680003  0.97370631  0.45707175    -0.93800
O232        O  0.93580018  0.07398318  0.09609607    -0.41600
O233        O  0.04027422  0.98669394  0.05081681    -0.78200
O234        O  0.95574144  0.98614922  0.04744759    -0.96900
O235        O  0.95725096  0.93664745  0.47982496    -0.90200
O236        O  0.04604807  0.93826812  0.48335509    -0.93100
C237        C  0.99422856  0.15504728  0.02818698     1.00700
C238        C  0.10526870  0.10215892  0.45659332     1.13600
C239        C  0.89846569  0.09981649  0.44981949     1.04400
O240        O  0.85736499  0.02038790  0.03358958    -0.95200
O241        O  0.88208741  0.93296104  0.02370715    -0.91000
O242        O  0.93389872  0.89028613  0.04614630    -0.84100
C243        C  0.89553375  0.89831617  0.04044186     1.11000
O244        O  0.01136777  0.97882994  0.36983194    -0.97200
Zr245      Zr  0.00414753  0.95040819  0.43139015     1.88900
O246        O  0.99751196  0.85612751  0.00005575    -0.73800
O247        O  0.86702785  0.97064135  0.44784069    -0.53100
O248        O  0.94522422  0.93077836  0.39358442    -0.97800
O249        O  0.06401899  0.92095199  0.39930565    -0.55000
O250        O  0.00012806  0.87068468  0.43840204    -0.74400
C251        C  0.99729743  0.84459084  0.46576534     0.98000
O252        O  0.99461640  0.90141427  0.09565111    -0.63200
O253        O  0.13550002  0.02480844  0.04606861    -0.58000
O254        O  0.06257952  0.88914893  0.04979860    -0.94700
O255        O  0.11538362  0.93328890  0.03104582    -0.93100
O256        O  0.05467069  0.07722770  0.09861520    -0.93400
O257        O  0.99291948  0.01824789  0.12421849    -0.92200
C258        C  0.10117779  0.89791341  0.04656550     1.16800
H259        H  0.06012583  0.08754636  0.01987048     0.32800
H260        H  0.93822493  0.97855670  0.06775420     0.43600
H261        H  0.06354101  0.91289655  0.47950691     0.37200
H262        H  0.94517428  0.02019642  0.42234040     0.33600
H263        H  0.94573701  0.09861835  0.11136606     0.25400
H264        H  0.84008685  0.98441696  0.45377490     0.31400
H265        H  0.95576944  0.90743886  0.37729879     0.37300
H266        H  0.04166992  0.09370368  0.11875895     0.31700
H267        H  0.16115474  0.03100697  0.03224403     0.30600
H268        H  0.16343019  0.97407143  0.47032785     0.32300
H269        H  0.05245181  0.89860400  0.38260296     0.31300
H270        H  0.01981155  0.00327156  0.12795993     0.35300
H271        H  0.01728630  0.91758706  0.10783549     0.28000
H272        H  0.99889879  0.13350062  0.40143662     0.32200
H273        H  0.02286949  0.00889819  0.37280947     0.35100
H274        H  0.12528518  0.05424967  0.05339502     0.27700
H275        H  0.96918530  0.91539100  0.10522463     0.40600
H276        H  0.86868316  0.01844934  0.05848431     0.30600
H277        H  0.91823567  0.08830692  0.07746891     0.38200
H278        H  0.07953974  0.90348703  0.41749234     0.30100
H279        H  0.87570554  0.98512357  0.42495644     0.30100
H280        H  0.98393607  0.08751751  0.38699173     0.30400
C281        C  0.28254905  0.77391777  0.14116764     0.01700
C282        C  0.28049058  0.72744205  0.14555809     0.01600
C283        C  0.24793657  0.70397268  0.12916721    -0.18900
C284        C  0.21775426  0.72516720  0.10787335     0.01700
C285        C  0.22007644  0.77160728  0.10312906     0.01600
C286        C  0.25199972  0.79511026  0.12036697    -0.18900
H287        H  0.25290218  0.83079242  0.11779871     0.03700
H288        H  0.24676727  0.66834846  0.13216419     0.03700
C289        C  0.72015840  0.77370380  0.14528195     0.01700
C290        C  0.72272893  0.72733172  0.14891567     0.01600
C291        C  0.75485223  0.70451807  0.13148816    -0.18900
C292        C  0.78448879  0.72631271  0.11002374     0.01700
C293        C  0.78221453  0.77301302  0.10674761     0.01600
C294        C  0.75015926  0.79581897  0.12449240    -0.18900
H295        H  0.74860081  0.83150186  0.12219039     0.03700
H296        H  0.75598150  0.66880772  0.13371230     0.03700
C297        C  0.86593130  0.86485519  0.05525569    -0.06700
C298        C  0.87854321  0.84004447  0.08575773    -0.17900
C299        C  0.85267817  0.80871361  0.10210015     0.10500
C300        C  0.81328613  0.80033082  0.08726136    -0.06700
C301        C  0.80071717  0.82423696  0.05641200    -0.17900
C302        C  0.82667000  0.85572663  0.03996089     0.10500
S303        S  0.87091851  0.78282245  0.14321663    -0.32900
S304        S  0.80834667  0.88162306  0.99897964    -0.32900
H305        H  0.84515940  0.87987988  0.48066810     0.28500
H306        H  0.83248910  0.78225991  0.16110610     0.28500
H307        H  0.90846852  0.84617670  0.09800009     0.19100
H308        H  0.77018750  0.81847494  0.04520997     0.19100
C309        C  0.18796483  0.79802084  0.08386116    -0.06700
C310        C  0.14877593  0.80114645  0.09973510    -0.17900
C311        C  0.12029745  0.83361112  0.08886771     0.10500
C312        C  0.13083399  0.86382433  0.06059096    -0.06700
C313        C  0.16985821  0.85964541  0.04402869    -0.17900
C314        C  0.19815658  0.82711559  0.05510343     0.10500
S315        S  0.07255270  0.83797833  0.11421844    -0.32900
S316        S  0.24706217  0.82448276  0.03164486    -0.32900
H317        H  0.25421435  0.77943421  0.03855007     0.28500
H318        H  0.07657059  0.79888046  0.13464063     0.28500
H319        H  0.14152315  0.77983881  0.12246232     0.19100
H320        H  0.17832600  0.88158027  0.02194632     0.19100
C321        C  0.99720832  0.29561374  0.03311759    -0.06700
C322        C  0.96703742  0.27568786  0.51337068    -0.17900
C323        C  0.96357091  0.23001978  0.51334330     0.10500
C324        C  0.99089790  0.20288607  0.03425571    -0.06700
C325        C  0.02064201  0.22428532  0.05565717    -0.17900
C326        C  0.02433404  0.27048876  0.05507095     0.10500
S327        S  0.92179861  0.20675922  0.48742378    -0.32900
S328        S  0.06622362  0.29482125  0.08026303    -0.32900
H329        H  0.07580812  0.32719053  0.05411804     0.28500
H330        H  0.91668614  0.16936812  0.50970537     0.28500
H331        H  0.94571613  0.29492345  0.49701330     0.19100
H332        H  0.04290977  0.20487037  0.07081884     0.19100
C333        C  0.99781265  0.70431018  0.46024670    -0.06700
C334        C  0.96579537  0.72558875  0.97869356    -0.17900
C335        C  0.96356413  0.77145127  0.97851967     0.10500
C336        C  0.99391973  0.79686115  0.45931339    -0.06700
C337        C  0.02492544  0.77495401  0.43969341    -0.17900
C338        C  0.02718785  0.72869419  0.43997468     0.10500
S339        S  0.92053079  0.79813633  0.00054207    -0.32900
S340        S  0.06935358  0.70301739  0.41603428    -0.32900
H341        H  0.07750292  0.67136642  0.44306782     0.28500
H342        H  0.89791201  0.75975893  0.00911096     0.28500
H343        H  0.94305108  0.70659481  0.99374612     0.19100
H344        H  0.04884244  0.79389243  0.42606028     0.19100
C345        C  0.86883757  0.63105728  0.06336980    -0.06700
C346        C  0.84134996  0.65431633  0.04079574    -0.17900
C347        C  0.81498432  0.68725943  0.05466628     0.10500
C348        C  0.81631925  0.69799130  0.09201790    -0.06700
C349        C  0.84407579  0.67485197  0.11440466    -0.17900
C350        C  0.87034491  0.64195448  0.10058606     0.10500
S351        S  0.77970231  0.71330163  0.02337931    -0.32900
S352        S  0.90407986  0.61226274  0.13118244    -0.32900
H353        H  0.89638510  0.63816853  0.16203139     0.28500
H354        H  0.74728076  0.71969202  0.04820619     0.28500
H355        H  0.84042328  0.64677567  0.01211066     0.19100
H356        H  0.84416354  0.68179531  0.14318574     0.19100
C357        C  0.13446459  0.63246721  0.05689596    -0.06700
C358        C  0.13074099  0.64198334  0.09400045    -0.17900
C359        C  0.15581345  0.67358937  0.11085617     0.10500
C360        C  0.18570256  0.69697672  0.09026955    -0.06700
C361        C  0.18902548  0.68810248  0.05295364    -0.17900
C362        C  0.16362755  0.65646384  0.03604218     0.10500
S363        S  0.14815178  0.68163665  0.15890112    -0.32900
S364        S  0.16951760  0.64885772  0.98785731    -0.32900
H365        H  0.13339765  0.63575561  0.48131065     0.28500
H366        H  0.16748038  0.72296752  0.16176968     0.28500
H367        H  0.10801312  0.62434392  0.11016996     0.19100
H368        H  0.21213356  0.70538790  0.03699018     0.19100
C369        C  0.13474676  0.36960344  0.43668891    -0.06700
C370        C  0.16223303  0.34729711  0.45989864    -0.17900
C371        C  0.18902230  0.31439994  0.44672990     0.10500
C372        C  0.18785563  0.30276653  0.40960364    -0.06700
C373        C  0.16001555  0.32475826  0.38665851    -0.17900
C374        C  0.13386040  0.35793781  0.39959679     0.10500
S375        S  0.22421723  0.28917661  0.47858950    -0.32900
S376        S  0.10150775  0.38557920  0.36682406    -0.32900
H377        H  0.10268469  0.42710314  0.38370999     0.28500
H378        H  0.25635906  0.28053362  0.45396138     0.28500
H379        H  0.16279607  0.35549925  0.48846874     0.19100
H380        H  0.15987644  0.31719676  0.35795055     0.19100
C381        C  0.18893453  0.20100340  0.41314560    -0.06700
C382        C  0.19875700  0.17944207  0.44583401    -0.17900
C383        C  0.17194050  0.14807344  0.46138463     0.10500
C384        C  0.13503814  0.13624526  0.44311433    -0.06700
C385        C  0.12513810  0.15866320  0.41068643    -0.17900
C386        C  0.15162997  0.19028892  0.39547979     0.10500
S387        S  0.18581501  0.12610990  0.50514561    -0.32900
S388        S  0.13699073  0.21423978  0.35252586    -0.32900
H389        H  0.17669538  0.21250445  0.33697807     0.28500
H390        H  0.11857703  0.14426337  0.01462418     0.28500
H391        H  0.22772829  0.18699711  0.45925134     0.19100
H392        H  0.09699844  0.15044177  0.39622280     0.19100
C393        C  0.63336551  0.86440636  0.19339082    -0.06700
C394        C  0.62873963  0.85120172  0.15714150    -0.17900
C395        C  0.65499113  0.81996368  0.14131126     0.10500
C396        C  0.68685746  0.80055776  0.16224884    -0.06700
C397        C  0.69044162  0.81218428  0.19901600    -0.17900
C398        C  0.66384494  0.84342776  0.21488522     0.10500
S399        S  0.64622198  0.80773697  0.09397085    -0.32900
S400        S  0.66986223  0.85426206  0.26262388    -0.32900
H401        H  0.62788952  0.86328411  0.26944422     0.28500
H402        H  0.67479087  0.77339669  0.08955140     0.28500
H403        H  0.60478612  0.86618308  0.14061371     0.19100
H404        H  0.71473851  0.79756363  0.21530440     0.19100
C405        C  0.36742664  0.86646561  0.19022792    -0.06700
C406        C  0.36940291  0.85773325  0.15292654    -0.17900
C407        C  0.34305545  0.82676259  0.13660009     0.10500
C408        C  0.31498032  0.80224087  0.15814369    -0.06700
C409        C  0.31355649  0.81020988  0.19565483    -0.17900
C410        C  0.33925113  0.84208807  0.21188214     0.10500
S411        S  0.34482560  0.81959680  0.08800823    -0.32900
S412        S  0.33449457  0.84991334  0.26016813    -0.32900
H413        H  0.37571131  0.86256087  0.26631107     0.28500
H414        H  0.37491946  0.85202784  0.08070406     0.28500
H415        H  0.39123113  0.87608004  0.13640275     0.19100
H416        H  0.29144159  0.79232543  0.21225631     0.19100
C417        C  0.31531193  0.19865876  0.33956741    -0.06700
C418        C  0.30300547  0.17325944  0.30965331    -0.17900
C419        C  0.32794680  0.13931262  0.29595296     0.10500
C420        C  0.36701982  0.13068927  0.31186101    -0.06700
C421        C  0.37943065  0.15681400  0.34149526    -0.17900
C422        C  0.35390223  0.18971512  0.35593279     0.10500
S423        S  0.30826335  0.10911195  0.25778072    -0.32900
S424        S  0.37223183  0.21751084  0.39605519    -0.32900
H425        H  0.33365770  0.22985920  0.41025724     0.28500
H426        H  0.30653032  0.06901044  0.27715795     0.28500
H427        H  0.27277577  0.17872663  0.29775107     0.19100
H428        H  0.40905302  0.15079075  0.35435299     0.19100
C429        C  0.49437298  0.29638560  0.21200509    -0.06700
C430        C  0.46041166  0.27394229  0.22690088    -0.17900
C431        C  0.45887242  0.22784334  0.22730299     0.10500
C432        C  0.49204841  0.20364853  0.21248005    -0.06700
C433        C  0.52483508  0.22598995  0.19551224    -0.17900
C434        C  0.52673832  0.27221038  0.19565970     0.10500
S435        S  0.41467031  0.20013580  0.24708456    -0.32900
S436        S  0.57268339  0.29783568  0.17732254    -0.32900
H437        H  0.57371478  0.33381557  0.20120678     0.28500
H438        H  0.39215181  0.23824176  0.25625964     0.28500
H439        H  0.43567982  0.29274206  0.23929442     0.19100
H440        H  0.55048789  0.20734364  0.18443907     0.19100
C441        C  0.51228089  0.70383974  0.28605376    -0.06700
C442        C  0.48297915  0.72501768  0.30810655    -0.17900
C443        C  0.48041773  0.77125780  0.30894521     0.10500
C444        C  0.50806454  0.79653320  0.28758538    -0.06700
C445        C  0.53919615  0.77519176  0.26788421    -0.17900
C446        C  0.54198937  0.72940102  0.26735145     0.10500
S447        S  0.43955648  0.79563280  0.33541838    -0.32900
S448        S  0.58434307  0.70568101  0.24238424    -0.32900
H449        H  0.58835834  0.66821523  0.26476726     0.28500
H450        H  0.43008331  0.82906533  0.31022631     0.28500
H451        H  0.46030030  0.70552883  0.32280376     0.19100
H452        H  0.56127348  0.79447837  0.25225961     0.19100
C453        C  0.63492720  0.63177128  0.18693897    -0.06700
C454        C  0.67034629  0.64096541  0.20774681    -0.17900
C455        C  0.69783068  0.67488326  0.19787230     0.10500
C456        C  0.69007100  0.70029016  0.16637963    -0.06700
C457        C  0.65436705  0.69184955  0.14612330    -0.17900
C458        C  0.62731139  0.65766753  0.15553147     0.10500
S459        S  0.74251250  0.68370293  0.22625879    -0.32900
S460        S  0.58586893  0.64645664  0.12425019    -0.32900
H461        H  0.59004128  0.60030210  0.12684195     0.28500
H462        H  0.75125052  0.72690003  0.21455833     0.28500
H463        H  0.67632337  0.62213615  0.23223470     0.19100
H464        H  0.64907966  0.70986558  0.12114764     0.19100
C465        C  0.36817823  0.63887790  0.19565577    -0.06700
C466        C  0.37688396  0.65855460  0.16189639    -0.17900
C467        C  0.34960163  0.68838537  0.14554405     0.10500
C468        C  0.31316388  0.70107911  0.16391168    -0.06700
C469        C  0.30489935  0.68269575  0.19825662    -0.17900
C470        C  0.33201827  0.65205796  0.21440930     0.10500
S471        S  0.36235720  0.70655659  0.10023748    -0.32900
S472        S  0.31903122  0.63185681  0.25903973    -0.32900
H473        H  0.36011628  0.62751836  0.27110045     0.28500
H474        H  0.32173400  0.71198402  0.08752092     0.28500
H475        H  0.40439994  0.64889156  0.14709841     0.19100
H476        H  0.27670929  0.69175990  0.21231374     0.19100
C477        C  0.36691054  0.36859916  0.30912574    -0.06700
C478        C  0.33760746  0.34846791  0.28639407    -0.17900
C479        C  0.31114001  0.31498223  0.29945051     0.10500
C480        C  0.31452740  0.30064423  0.33597144    -0.06700
C481        C  0.34372914  0.32102779  0.35846415    -0.17900
C482        C  0.36934898  0.35487764  0.34571665     0.10500
S483        S  0.27270963  0.29388716  0.26847918    -0.32900
S484        S  0.40247179  0.38140757  0.37835080    -0.32900
H485        H  0.39920997  0.42388080  0.36302461     0.28500
H486        H  0.25877439  0.25812425  0.28937014     0.28500
H487        H  0.33543811  0.35875310  0.25827600     0.19100
H488        H  0.34485555  0.31229675  0.38697469     0.19100
C489        C  0.81689828  0.20002598  0.40620609    -0.06700
C490        C  0.80527663  0.17640510  0.43750810    -0.17900
C491        C  0.83112048  0.14404514  0.45274891     0.10500
C492        C  0.86916980  0.13371047  0.43573847    -0.06700
C493        C  0.88095685  0.15810270  0.40480627    -0.17900
C494        C  0.85523686  0.19044668  0.38976370     0.10500
S495        S  0.81443368  0.11866783  0.49455578    -0.32900
S496        S  0.87213004  0.21645073  0.34835809    -0.32900
H497        H  0.83348143  0.21343175  0.33103627     0.28500
H498        H  0.84987566  0.11748395  0.01156946     0.28500
H499        H  0.77554948  0.18301675  0.44998561     0.19100
H500        H  0.91006186  0.15100220  0.39141837     0.19100
C501        C  0.86890206  0.36800595  0.43715848    -0.06700
C502        C  0.86650233  0.36555654  0.39930647    -0.17900
C503        C  0.84202979  0.33382828  0.38199049     0.10500
C504        C  0.81918004  0.30272026  0.40288365    -0.06700
C505        C  0.82242108  0.30442417  0.44093981    -0.17900
C506        C  0.84714809  0.33646638  0.45821898     0.10500
S507        S  0.84085072  0.33634260  0.33298791    -0.32900
S508        S  0.84932335  0.33567602  0.50707941    -0.32900
H509        H  0.88984191  0.35203795  0.51020568     0.28500
H510        H  0.82520272  0.29395166  0.32653794     0.28500
H511        H  0.88390255  0.38891019  0.38293322     0.19100
H512        H  0.80461303  0.28150329  0.45734770     0.19100
C513        C  0.68930906  0.19989374  0.33349732    -0.06700
C514        C  0.69439459  0.18453218  0.29788120    -0.17900
C515        C  0.66696992  0.15349095  0.28288472     0.10500
C516        C  0.63401312  0.13656934  0.30411258    -0.06700
C517        C  0.62867340  0.15270275  0.33953456    -0.17900
C518        C  0.65611564  0.18367065  0.35448251     0.10500
S519        S  0.67516439  0.13755990  0.23641584    -0.32900
S520        S  0.64974273  0.20109838  0.40094547    -0.32900
H521        H  0.61454288  0.17535756  0.40868033     0.28500
H522        H  0.63285672  0.13485621  0.22766384     0.28500
H523        H  0.72031568  0.19619770  0.28184533     0.19100
H524        H  0.60345737  0.14001093  0.35590699     0.19100
C525        C  0.69093959  0.30060529  0.33081575    -0.06700
C526        C  0.65737271  0.31365838  0.35221240    -0.17900
C527        C  0.63054045  0.34718921  0.34094846     0.10500
C528        C  0.63563557  0.36711222  0.30642036    -0.06700
C529        C  0.66929624  0.35395094  0.28481413    -0.17900
C530        C  0.69722506  0.32140107  0.29679050     0.10500
S531        S  0.59312958  0.36601800  0.37364218    -0.32900
S532        S  0.74105987  0.30947194  0.26805527    -0.32900
H533        H  0.75254572  0.26925943  0.28412305     0.28500
H534        H  0.59603594  0.41083669  0.36370289     0.28500
H535        H  0.65378268  0.29978231  0.37917038     0.19100
H536        H  0.67387107  0.36907011  0.25842278     0.19100
C537        C  0.72121733  0.27343529  0.85131470     0.01700
C538        C  0.72063924  0.22683733  0.85187951     0.01600
C539        C  0.75189073  0.20428762  0.87070251    -0.18900
C540        C  0.78402434  0.22685130  0.88852058     0.01700
C541        C  0.78515572  0.27371396  0.88703188     0.01600
C542        C  0.75299397  0.29602102  0.86919807    -0.18900
H543        H  0.75282208  0.33185035  0.86897902     0.03700
H544        H  0.75126839  0.16847842  0.87140548     0.03700
Zr545      Zr  0.50134668  0.42518631  0.78533176     2.17500
O546        O  0.50691045  0.39801569  0.84742671    -0.51900
O547        O  0.49592731  0.35679990  0.75223618    -0.75200
O548        O  0.43655072  0.39200218  0.80334230    -0.81900
O549        O  0.61814791  0.43398667  0.77756749    -0.83700
O550        O  0.38458999  0.43383608  0.77975291    -0.79300
O551        O  0.56632373  0.39019430  0.79948404    -0.90900
O552        O  0.49729978  0.37164250  0.69170872    -0.76900
O553        O  0.45577219  0.43867676  0.73607348    -0.86400
O554        O  0.54442201  0.43733620  0.73390896    -0.86100
O555        O  0.46081925  0.48740230  0.80404440    -0.72800
O556        O  0.54478755  0.48638074  0.80095769    -0.85000
Zr557      Zr  0.50123853  0.57604724  0.71680313     2.26400
Zr558      Zr  0.41579684  0.50136476  0.75358335     2.06300
Zr559      Zr  0.58707040  0.49916806  0.74842037     2.10000
Zr560      Zr  0.49895318  0.45165037  0.68489704     1.78800
O561        O  0.64308251  0.52412766  0.78747517    -0.93800
O562        O  0.43877909  0.42899105  0.64985645    -0.41600
O563        O  0.54207235  0.51406136  0.69822096    -0.78200
O564        O  0.45796516  0.51465337  0.70093767    -0.96900
O565        O  0.45832134  0.56347741  0.76815225    -0.90200
O566        O  0.54712040  0.56186639  0.76578298    -0.93100
C567        C  0.49578655  0.34508631  0.71889512     1.00700
C568        C  0.60459636  0.39926974  0.79413691     1.13600
C569        C  0.39822500  0.39985683  0.79731711     1.04400
O570        O  0.35940209  0.47856853  0.71406015    -0.95200
O571        O  0.38405478  0.56735149  0.72615319    -0.91000
O572        O  0.43574104  0.61196011  0.70510875    -0.84100
C573        C  0.39749215  0.60269606  0.71042452     1.11000
O574        O  0.50308173  0.51911986  0.87831147    -0.97200
Zr575      Zr  0.50436983  0.54982548  0.81708858     1.88900
O576        O  0.50745509  0.64466776  0.74939618    -0.73800
O577        O  0.36887630  0.52894124  0.79993302    -0.53100
O578        O  0.44748134  0.58206816  0.85135593    -0.97800
O579        O  0.56699246  0.56903935  0.85039918    -0.55000
O580        O  0.50813456  0.62995286  0.80995365    -0.74400
C581        C  0.50939110  0.65644520  0.78267803     0.98000
O582        O  0.49595956  0.60264215  0.65448769    -0.63200
O583        O  0.63388261  0.47134734  0.70206678    -0.58000
O584        O  0.56667776  0.60888730  0.69943547    -0.94700
O585        O  0.61862914  0.56469119  0.71997089    -0.93100
O586        O  0.55780142  0.42443613  0.65024411    -0.93400
O587        O  0.50000026  0.48255509  0.62382188    -0.92200
C588        C  0.60514048  0.59977119  0.70389555     1.16800
H589        H  0.56111177  0.41172846  0.72858800     0.32800
H590        H  0.44064783  0.52258504  0.68060511     0.43600
H591        H  0.56525098  0.58658488  0.77022583     0.37200
H592        H  0.44478252  0.47984468  0.82533493     0.33600
H593        H  0.44914309  0.40538706  0.63373671     0.25400
H594        H  0.34091226  0.52445553  0.78959954     0.31400
H595        H  0.46042362  0.60526775  0.86643323     0.37300
H596        H  0.54630164  0.40070405  0.63484888     0.31700
H597        H  0.66175143  0.47366810  0.71304269     0.30600
H598        H  0.66837421  0.51084069  0.77699655     0.32300
H599        H  0.58150952  0.59098886  0.83500921     0.31300
H600        H  0.52352311  0.50353902  0.62377370     0.35300
H601        H  0.51656728  0.58490006  0.64110247     0.28000
H602        H  0.49336842  0.36868202  0.84774095     0.32200
H603        H  0.50739419  0.54450250  0.89472171     0.35100
H604        H  0.62835445  0.43922118  0.70107690     0.27700
H605        H  0.46907337  0.59152165  0.64542814     0.40600
H606        H  0.36931779  0.48512894  0.68920483     0.30600
H607        H  0.42076761  0.41345270  0.66751760     0.38200
H608        H  0.58453029  0.54229592  0.84914355     0.30100
H609        H  0.37065198  0.50733616  0.82008007     0.30100
H610        H  0.48853314  0.41738232  0.86177824     0.30400
Zr611      Zr  0.49975551  0.07464210  0.78254204     2.17500
O612        O  0.49795177  0.09966311  0.84525856    -0.51900
O613        O  0.49656684  0.14408473  0.75054996    -0.75200
O614        O  0.56431682  0.11110278  0.79661644    -0.81900
O615        O  0.38257947  0.06405861  0.77476475    -0.83700
O616        O  0.61670878  0.06860858  0.77485884    -0.79300
O617        O  0.43376238  0.10658583  0.79854450    -0.90900
O618        O  0.50115275  0.13109441  0.68997044    -0.76900
O619        O  0.54489495  0.06385985  0.73238956    -0.86400
O620        O  0.45601230  0.06207769  0.73182745    -0.86100
O621        O  0.54315524  0.01364597  0.79932534    -0.72800
O622        O  0.45819011  0.01198207  0.79873786    -0.85000
Zr623      Zr  0.50240445  0.92575278  0.71274125     2.26400
Zr624      Zr  0.58697103  0.00152169  0.74760219     2.06300
Zr625      Zr  0.41526803  0.99879154  0.74678396     2.10000
Zr626      Zr  0.50091725  0.05112496  0.68190294     1.78800
O627        O  0.36128918  0.97294561  0.78779175    -0.93800
O628        O  0.55971699  0.07496496  0.64530743    -0.41600
O629        O  0.45976697  0.98708039  0.69571113    -0.78200
O630        O  0.54379044  0.98842338  0.69581799    -0.96900
O631        O  0.54615188  0.93863127  0.76327486    -0.90200
O632        O  0.45771901  0.93731332  0.76306613    -0.93100
C633        C  0.49764983  0.15680616  0.71739871     1.00700
C634        C  0.39547562  0.09837994  0.79211794     1.13600
C635        C  0.60278856  0.10346123  0.79078732     1.04400
O636        O  0.63460856  0.02593630  0.70042778    -0.95200
O637        O  0.61884931  0.93349118  0.72356475    -0.91000
O638        O  0.56781577  0.89205421  0.69807718    -0.84100
C639        C  0.60581201  0.89938393  0.70598799     1.11000
O640        O  0.50190327  0.98293930  0.87382002    -0.97200
Zr641      Zr  0.50157839  0.95024685  0.81349602     1.88900
O642        O  0.50714415  0.85691476  0.74576053    -0.73800
O643        O  0.64248463  0.97889043  0.78838535    -0.53100
O644        O  0.56257330  0.92329453  0.84548761    -0.97800
O645        O  0.44415375  0.92356145  0.85052921    -0.55000
O646        O  0.50123946  0.87047713  0.80616980    -0.74400
C647        C  0.50498277  0.84450409  0.77898214     0.98000
O648        O  0.50166764  0.90072478  0.64996028    -0.63200
O649        O  0.36654075  0.02209444  0.70017866    -0.58000
O650        O  0.43794437  0.88905775  0.69861315    -0.94700
O651        O  0.38532801  0.93175228  0.71960600    -0.93100
O652        O  0.44112082  0.08075258  0.64984355    -0.93400
O653        O  0.49406876  0.02302596  0.62039422    -0.92200
C654        C  0.39937465  0.89663968  0.70414162     1.16800
H655        H  0.43838528  0.08712613  0.72695012     0.32800
H656        H  0.56067879  0.98134186  0.67503104     0.43600
H657        H  0.44089024  0.91160470  0.76796278     0.37200
H658        H  0.55972754  0.02135028  0.82014300     0.33600
H659        H  0.54790932  0.09628314  0.62771350     0.25400
H660        H  0.66576924  0.99920552  0.78306944     0.31400
H661        H  0.55208161  0.89982030  0.86186578     0.37300
H662        H  0.45278409  0.10191951  0.63201679     0.31700
H663        H  0.33912657  0.02076886  0.71214724     0.30600
H664        H  0.33517723  0.98371994  0.77686826     0.32300
H665        H  0.45435447  0.89598666  0.86191572     0.31300
H666        H  0.47011939  0.00261760  0.62139585     0.35300
H667        H  0.47885995  0.91749668  0.63845293     0.28000
H668        H  0.50543636  0.13135149  0.84424044     0.32200
H669        H  0.50697714  0.95822790  0.89089885     0.35100
H670        H  0.37197397  0.05401029  0.69676645     0.27700
H671        H  0.52703512  0.91331271  0.63890736     0.40600
H672        H  0.66203301  0.01516892  0.70849587     0.30600
H673        H  0.57659224  0.09332298  0.66182962     0.38200
H674        H  0.42292689  0.91370080  0.83298976     0.30100
H675        H  0.63288966  0.98735567  0.81288466     0.30100
H676        H  0.52185962  0.08512447  0.85709325     0.30400
C677        C  0.28281212  0.27196662  0.85598774     0.01700
C678        C  0.28094854  0.22533531  0.85393401     0.01600
C679        C  0.24849878  0.20305722  0.87153135    -0.18900
C680        C  0.21812590  0.22566338  0.89143597     0.01700
C681        C  0.22084984  0.27216303  0.89458530     0.01600
C682        C  0.25315353  0.29445485  0.87676805    -0.18900
H683        H  0.25473696  0.33017402  0.87845009     0.03700
H684        H  0.24701415  0.16732750  0.86995366     0.03700
Zr685      Zr  0.00126728  0.57528161  0.53340173     2.17500
O686        O  0.00095845  0.60399946  0.59511442    -0.51900
O687        O  0.99879868  0.64399729  0.49992665    -0.75200
O688        O  0.06625149  0.60975991  0.54844017    -0.81900
O689        O  0.88403380  0.56447403  0.52981739    -0.83700
O690        O  0.11866092  0.56830090  0.52537208    -0.79300
O691        O  0.93620110  0.60682715  0.55245869    -0.90900
O692        O  0.00008322  0.63021024  0.93862801    -0.76900
O693        O  0.04434656  0.56332704  0.98087249    -0.86400
O694        O  0.95545530  0.56251407  0.98294545    -0.86100
O695        O  0.04464658  0.51400722  0.54967925    -0.72800
O696        O  0.96046837  0.51238864  0.55033526    -0.85000
Zr697      Zr  0.00007652  0.42588699  0.96193189     2.26400
Zr698      Zr  0.08677412  0.50077959  0.99478688     2.06300
Zr699      Zr  0.91467722  0.49950249  0.99923270     2.10000
Zr700      Zr  0.99845362  0.55069717  0.93162973     1.78800
O701        O  0.86501050  0.47100872  0.54242068    -0.93800
O702        O  0.05731347  0.57462276  0.89511122    -0.41600
O703        O  0.95703672  0.48741856  0.94666120    -0.78200
O704        O  0.04140057  0.48809508  0.94435424    -0.96900
O705        O  0.04705503  0.43854169  0.51256749    -0.90200
O706        O  0.95829842  0.43806343  0.51418247    -0.93100
C707        C  0.00004745  0.65580942  0.96617900     1.00700
C708        C  0.89776217  0.59820418  0.54753094     1.13600
C709        C  0.10464296  0.60227158  0.54250266     1.04400
O710        O  0.13790771  0.52545357  0.95059512    -0.95200
O711        O  0.11679598  0.43501218  0.96528334    -0.91000
O712        O  0.06447835  0.39182158  0.94424017    -0.84100
C713        C  0.10299468  0.40046466  0.94867735     1.11000
O714        O  0.00746779  0.47733704  0.62571579    -0.97200
Zr715      Zr  0.00386929  0.44994800  0.56371760     1.88900
O716        O  0.00029285  0.35656000  0.99425151    -0.73800
O717        O  0.14104075  0.47585622  0.53881391    -0.53100
O718        O  0.06639091  0.42224769  0.59291185    -0.97800
O719        O  0.94614927  0.42473401  0.60108848    -0.55000
O720        O  0.00274643  0.37023305  0.55587347    -0.74400
C721        C  0.00157523  0.34480840  0.52817524     0.98000
O722        O  0.99606504  0.40357658  0.89856680    -0.63200
O723        O  0.86121471  0.52473494  0.95748316    -0.58000
O724        O  0.93524389  0.39051623  0.94800585    -0.94700
O725        O  0.88333616  0.43337984  0.97060368    -0.93100
O726        O  0.93556964  0.57499483  0.90110660    -0.93400
O727        O  0.99505660  0.52603808  0.86892219    -0.92200
C728        C  0.89698774  0.39888603  0.95381279     1.16800
H729        H  0.93796745  0.58786634  0.97876077     0.32800
H730        H  0.05743072  0.48107686  0.92304828     0.43600
H731        H  0.94121186  0.41257335  0.51911292     0.37200
H732        H  0.06145527  0.52153269  0.57039431     0.33600
H733        H  0.04662484  0.59923513  0.88005678     0.25400
H734        H  0.16585862  0.49359858  0.53264468     0.31400
H735        H  0.05701908  0.39711754  0.60810315     0.37300
H736        H  0.94339245  0.60269133  0.88849427     0.31700
H737        H  0.83487134  0.51906959  0.97043938     0.30600
H738        H  0.83922924  0.46773396  0.52818119     0.32300
H739        H  0.93632054  0.39714512  0.58964793     0.31300
H740        H  0.97756655  0.49919635  0.86969459     0.35300
H741        H  0.96905419  0.41463939  0.88971913     0.28000
H742        H  0.00755723  0.63582333  0.59276668     0.32200
H743        H  0.01036810  0.45080985  0.64129874     0.35100
H744        H  0.86389114  0.55730217  0.95708434     0.27700
H745        H  0.01641821  0.42277366  0.88607941     0.40600
H746        H  0.13555876  0.55802476  0.95035130     0.30600
H747        H  0.07630051  0.58894074  0.91253048     0.38200
H748        H  0.92382124  0.44632768  0.59629080     0.30100
H749        H  0.13249051  0.48659006  0.56299203     0.30100
H750        H  0.02539590  0.59079839  0.60717262     0.30400
Zr751      Zr  0.00083667  0.07366271  0.96285941     2.17500
O752        O  0.00358406  0.10037930  0.90044265    -0.51900
O753        O  0.99659121  0.14266541  0.99507490    -0.75200
O754        O  0.93590857  0.10759301  0.94655134    -0.81900
O755        O  0.11751335  0.06604309  0.97232004    -0.83700
O756        O  0.88332334  0.06401753  0.96661618    -0.79300
O757        O  0.06583758  0.10784443  0.94779938    -0.90900
O758        O  0.99599128  0.13049909  0.55465215    -0.76900
O759        O  0.95427811  0.06188003  0.51056911    -0.86400
O760        O  0.04359109  0.06309501  0.51438115    -0.86100
O761        O  0.95996355  0.01181122  0.94435466    -0.72800
O762        O  0.04447423  0.01241496  0.94782577    -0.85000
Zr763      Zr  0.99920065  0.92564059  0.53188053     2.26400
Zr764      Zr  0.91419923  0.99787427  0.99445887     2.06300
Zr765      Zr  0.08617076  0.99969665  0.00076071     2.10000
Zr766      Zr  0.99634854  0.05059170  0.56246163     1.78800
O767        O  0.14083753  0.97448433  0.96035795    -0.93800
O768        O  0.93502751  0.07695782  0.59420737    -0.41600
O769        O  0.03971349  0.98796238  0.55024411    -0.78200
O770        O  0.95573349  0.98696456  0.54696012    -0.96900
O771        O  0.95689915  0.93605527  0.98061928    -0.90200
O772        O  0.04563085  0.93724249  0.98347456    -0.93100
C773        C  0.99518713  0.15646895  0.52709950     1.00700
C774        C  0.10399819  0.10002783  0.95458177     1.13600
C775        C  0.89734401  0.09927458  0.95114801     1.04400
O776        O  0.85761496  0.02100957  0.53287772    -0.95200
O777        O  0.88223374  0.93308977  0.52298718    -0.91000
O778        O  0.93411919  0.89057136  0.54545489    -0.84100
C779        C  0.89570215  0.89834998  0.53969058     1.11000
O780        O  0.00645156  0.97955831  0.87047277    -0.97200
Zr781      Zr  0.00330316  0.94949910  0.93180556     1.88900
O782        O  0.99707302  0.85683909  0.49901031    -0.73800
O783        O  0.86870828  0.96844255  0.94777395    -0.53100
O784        O  0.94441824  0.92544501  0.89569842    -0.97800
O785        O  0.06312923  0.92297776  0.89799299    -0.55000
O786        O  0.00095610  0.86974011  0.93941095    -0.74400
C787        C  0.99800304  0.84378278  0.96687619     0.98000
O788        O  0.99626853  0.90139979  0.59488133    -0.63200
O789        O  0.13812989  0.02369535  0.54473985    -0.58000
O790        O  0.06361640  0.89074500  0.54877949    -0.94700
O791        O  0.11654126  0.93568895  0.53179485    -0.93100
O792        O  0.05436463  0.07836940  0.59778164    -0.93400
O793        O  0.99301934  0.02194951  0.62415790    -0.92200
C794        C  0.10226640  0.89994267  0.54662094     1.16800
H795        H  0.06027301  0.08869252  0.51985013     0.32800
H796        H  0.93813637  0.97936297  0.56721862     0.43600
H797        H  0.06305779  0.91186058  0.97939508     0.37200
H798        H  0.94430118  0.01936999  0.92293683     0.33600
H799        H  0.94540174  0.10008665  0.61078802     0.25400
H800        H  0.84044817  0.97570905  0.95625790     0.31400
H801        H  0.95653715  0.90690730  0.87636099     0.37300
H802        H  0.04187390  0.09963245  0.61491462     0.31700
H803        H  0.16281339  0.03150214  0.53013203     0.30600
H804        H  0.16612834  0.97453113  0.97550942     0.32300
H805        H  0.07761332  0.90255467  0.91471680     0.31300
H806        H  0.01374932  0.99792561  0.62479817     0.35300
H807        H  0.01909165  0.91760592  0.60681800     0.28000
H808        H  0.99508403  0.13174165  0.90157181     0.32200
H809        H  0.02043811  0.00846008  0.87312681     0.35100
H810        H  0.12784926  0.05220326  0.55416822     0.27700
H811        H  0.97093449  0.91508128  0.60491310     0.40600
H812        H  0.87114361  0.03134141  0.55536192     0.30600
H813        H  0.91908894  0.09338505  0.57562008     0.38200
H814        H  0.08176024  0.94886744  0.89610892     0.30100
H815        H  0.87306757  0.98768749  0.92635103     0.30100
H816        H  0.98050201  0.08526021  0.88791587     0.30400
C817        C  0.28294995  0.77135064  0.64356723     0.01700
C818        C  0.28103746  0.72460519  0.64488260     0.01600
C819        C  0.24750565  0.70325405  0.62819754    -0.18900
C820        C  0.21754212  0.72658409  0.60835228     0.01700
C821        C  0.22049668  0.77314876  0.60547818     0.01600
C822        C  0.25275631  0.79474806  0.62386450    -0.18900
H823        H  0.25441413  0.83050311  0.62284602     0.03700
H824        H  0.24531154  0.66755151  0.62980755     0.03700
C825        C  0.72220080  0.77373796  0.64652767     0.01700
C826        C  0.72413785  0.72733138  0.65067190     0.01600
C827        C  0.75552581  0.70400176  0.63279795    -0.18900
C828        C  0.78480074  0.72532230  0.61061684     0.01700
C829        C  0.78327194  0.77197216  0.60690873     0.01600
C830        C  0.75198492  0.79527892  0.62506669    -0.18900
H831        H  0.75069207  0.83093889  0.62240131     0.03700
H832        H  0.75633502  0.66829047  0.63519500     0.03700
C833        C  0.86624380  0.86437232  0.55443426    -0.06700
C834        C  0.87954529  0.83876321  0.58427845    -0.17900
C835        C  0.85421258  0.80686690  0.60061255     0.10500
C836        C  0.81431019  0.79879759  0.58660130    -0.06700
C837        C  0.80113173  0.82326484  0.55617742    -0.17900
C838        C  0.82667218  0.85526405  0.53967886     0.10500
S839        S  0.87422206  0.77991582  0.64064852    -0.32900
S840        S  0.80729758  0.88205189  0.49946044    -0.32900
H841        H  0.84654607  0.87833990  0.98082713     0.28500
H842        H  0.83628815  0.77491277  0.65882905     0.28500
H843        H  0.90974300  0.84464300  0.59607851     0.19100
H844        H  0.77032905  0.81773770  0.54547564     0.19100
C845        C  0.18920779  0.80101713  0.58627217    -0.06700
C846        C  0.14913302  0.80309037  0.60048828    -0.17900
C847        C  0.12043675  0.83479814  0.58855786     0.10500
C848        C  0.13189856  0.86603103  0.56129255    -0.06700
C849        C  0.17198333  0.86309371  0.54646875    -0.17900
C850        C  0.20028839  0.83079175  0.55822644     0.10500
S851        S  0.07055072  0.83605820  0.61081132    -0.32900
S852        S  0.25011160  0.82892057  0.53617987    -0.32900
H853        H  0.25780907  0.78397823  0.54315124     0.28500
H854        H  0.07535871  0.79809089  0.63247695     0.28500
H855        H  0.14094010  0.78103763  0.62243065     0.19100
H856        H  0.18121378  0.88563666  0.52504408     0.19100
C857        C  0.99773659  0.29696136  0.53356447    -0.06700
C858        C  0.96584262  0.27409464  0.01382996    -0.17900
C859        C  0.96205638  0.22837666  0.01457195     0.10500
C860        C  0.99213051  0.20432915  0.53317352    -0.06700
C861        C  0.02123011  0.22549212  0.55546048    -0.17900
C862        C  0.02446145  0.27172499  0.55575101     0.10500
S863        S  0.91966895  0.20468439  0.98970564    -0.32900
S864        S  0.06490600  0.29609047  0.58271448    -0.32900
H865        H  0.07521161  0.32925885  0.55746792     0.28500
H866        H  0.91513659  0.16750416  0.01234744     0.28500
H867        H  0.94421814  0.29316053  0.99764161     0.19100
H868        H  0.04316831  0.20595258  0.57087500     0.19100
C869        C  0.99746243  0.70357906  0.96030738    -0.06700
C870        C  0.96491094  0.72626961  0.47695064    -0.17900
C871        C  0.96239825  0.77216946  0.47633508     0.10500
C872        C  0.99451165  0.79609479  0.96065261    -0.06700
C873        C  0.02445823  0.77425398  0.93980707    -0.17900
C874        C  0.02621422  0.72799607  0.93935903     0.10500
S875        S  0.91852753  0.79893395  0.49696761    -0.32900
S876        S  0.06689176  0.70255721  0.91332204    -0.32900
H877        H  0.07372690  0.66727637  0.93738542     0.28500
H878        H  0.89867108  0.76065090  0.50998739     0.28500
H879        H  0.94150133  0.70722305  0.49113295     0.19100
H880        H  0.04786088  0.79321037  0.92551893     0.19100
C881        C  0.86803239  0.63013651  0.56361635    -0.06700
C882        C  0.83815540  0.65082739  0.54165774    -0.17900
C883        C  0.81166747  0.68350400  0.55568563     0.10500
C884        C  0.81562608  0.69662305  0.59230019    -0.06700
C885        C  0.84518611  0.67561900  0.61416288    -0.17900
C886        C  0.87145313  0.64294952  0.60031370     0.10500
S887        S  0.77285491  0.70620392  0.52581041    -0.32900
S888        S  0.90744625  0.61581123  0.63051820    -0.32900
H889        H  0.90176393  0.64400958  0.66032448     0.28500
H890        H  0.74261749  0.71425945  0.55237609     0.28500
H891        H  0.83547373  0.64152259  0.51341835     0.19100
H892        H  0.84669491  0.68399562  0.64264750     0.19100
C893        C  0.13373031  0.63532937  0.55779237    -0.06700
C894        C  0.12765024  0.64811957  0.59400797    -0.17900
C895        C  0.15298697  0.67957245  0.61065441     0.10500
C896        C  0.18487397  0.70010961  0.59043010    -0.06700
C897        C  0.19042426  0.68833185  0.55392969    -0.17900
C898        C  0.16527062  0.65630164  0.53740434     0.10500
S899        S  0.14383869  0.68998106  0.65826037    -0.32900
S900        S  0.17491278  0.64400478  0.49038805    -0.32900
H901        H  0.12792404  0.63824953  0.98093821     0.28500
H902        H  0.16909346  0.72729794  0.66246220     0.28500
H903        H  0.10335445  0.63258792  0.60986600     0.19100
H904        H  0.21539023  0.70326893  0.53850934     0.19100
C905        C  0.13307430  0.36720897  0.93456917    -0.06700
C906        C  0.16978592  0.35906767  0.95390910    -0.17900
C907        C  0.19764879  0.32599449  0.94314084     0.10500
C908        C  0.18875251  0.29972649  0.91245383    -0.06700
C909        C  0.15188762  0.30723822  0.89352445    -0.17900
C910        C  0.12464181  0.34097408  0.90358498     0.10500
S911        S  0.24446074  0.31967627  0.96928220    -0.32900
S912        S  0.08190486  0.35131062  0.87343145    -0.32900
H913        H  0.08635957  0.39748483  0.87494650     0.28500
H914        H  0.25366907  0.27640606  0.95838608     0.28500
H915        H  0.17674507  0.37836129  0.97782119     0.19100
H916        H  0.14566858  0.28871392  0.86905965     0.19100
C917        C  0.18470029  0.19870446  0.90818928    -0.06700
C918        C  0.18515529  0.19124019  0.94584813    -0.17900
C919        C  0.15954663  0.15903834  0.96192055     0.10500
C920        C  0.13351650  0.13296806  0.93985784    -0.06700
C921        C  0.13221989  0.14150163  0.90245664    -0.17900
C922        C  0.15721946  0.17389900  0.88645601     0.10500
S923        S  0.16106582  0.15308265  0.01053534    -0.32900
S924        S  0.15318103  0.18095214  0.83790750    -0.32900
H925        H  0.17020295  0.22355539  0.83577372     0.28500
H926        H  0.14514911  0.12668479  0.51882513     0.28500
H927        H  0.20632814  0.20979467  0.96270841     0.19100
H928        H  0.11150389  0.12251703  0.88543504     0.19100
C929        C  0.63581270  0.86607443  0.69253094    -0.06700
C930        C  0.63164498  0.85221240  0.65641157    -0.17900
C931        C  0.65790216  0.82052225  0.64132541     0.10500
C932        C  0.68927972  0.80132604  0.66289278    -0.06700
C933        C  0.69313857  0.81434603  0.69928726    -0.17900
C934        C  0.66655545  0.84610718  0.71442535     0.10500
S935        S  0.65003004  0.80760920  0.59396980    -0.32900
S936        S  0.67285948  0.85880890  0.76180374    -0.32900
H937        H  0.63061694  0.86604478  0.76879850     0.28500
H938        H  0.67671703  0.77136121  0.59088727     0.28500
H939        H  0.60792708  0.86686954  0.63943557     0.19100
H940        H  0.71750345  0.80023021  0.71583694     0.19100
C941        C  0.36986971  0.86215236  0.69116268    -0.06700
C942        C  0.38086743  0.83751432  0.66028170    -0.17900
C943        C  0.35414798  0.80572909  0.64549798     0.10500
C944        C  0.31548793  0.79778757  0.66190664    -0.06700
C945        C  0.30481215  0.82122230  0.69330417    -0.17900
C946        C  0.33165801  0.85261238  0.70841103     0.10500
S947        S  0.36867203  0.77717375  0.60458502    -0.32900
S948        S  0.31556872  0.87827123  0.75006794    -0.32900
H949        H  0.35505964  0.87657114  0.76608571     0.28500
H950        H  0.40629499  0.79947704  0.59865714     0.28500
H951        H  0.41012531  0.84410775  0.64699261     0.19100
H952        H  0.27496707  0.81535419  0.70588995     0.19100
C953        C  0.31286172  0.19775124  0.83593533    -0.06700
C954        C  0.30254338  0.17629842  0.80343608    -0.17900
C955        C  0.32815874  0.14351083  0.78856513     0.10500
C956        C  0.36522745  0.13136681  0.80650066    -0.06700
C957        C  0.37585989  0.15400040  0.83846224    -0.17900
C958        C  0.35020049  0.18634679  0.85350825     0.10500
S959        S  0.31301301  0.12030214  0.74579336    -0.32900
S960        S  0.36705311  0.21055277  0.89569177    -0.32900
H961        H  0.32838466  0.22427816  0.90873328     0.28500
H962        H  0.30666759  0.07801639  0.76071187     0.28500
H963        H  0.27371265  0.18444770  0.78998442     0.19100
H964        H  0.40427077  0.14572279  0.85252445     0.19100
C965        C  0.49397264  0.29737891  0.71211204    -0.06700
C966        C  0.46003130  0.27386410  0.72587813    -0.17900
C967        C  0.45941904  0.22770229  0.72535720     0.10500
C968        C  0.49362707  0.20458323  0.71116910    -0.06700
C969        C  0.52635883  0.22803909  0.69517398    -0.17900
C970        C  0.52706097  0.27429685  0.69587821     0.10500
S971        S  0.41500516  0.19835509  0.74298745    -0.32900
S972        S  0.57246570  0.30193304  0.67873024    -0.32900
H973        H  0.57608436  0.33086348  0.70830967     0.28500
H974        H  0.39118543  0.23559952  0.75194446     0.28500
H975        H  0.43456647  0.29179165  0.73799763     0.19100
H976        H  0.55273449  0.21029895  0.68441264     0.19100
C977        C  0.51308870  0.70413005  0.78920824    -0.06700
C978        C  0.48012749  0.72624939  0.80593782    -0.17900
C979        C  0.47703266  0.77238772  0.80411580     0.10500
C980        C  0.50800132  0.79678166  0.78574883    -0.06700
C981        C  0.54221635  0.77470031  0.77118034    -0.17900
C982        C  0.54533187  0.72885970  0.77311545     0.10500
S983        S  0.43129515  0.79755209  0.82292874    -0.32900
S984        S  0.59092884  0.70382740  0.75402133    -0.32900
H985        H  0.59035174  0.66618195  0.77645867     0.28500
H986        H  0.42719679  0.83031780  0.79605638     0.28500
H987        H  0.45514320  0.70735977  0.81806336     0.19100
H988        H  0.56648297  0.79334774  0.75769351     0.19100
C989        C  0.63555015  0.63307660  0.69045362    -0.06700
C990        C  0.67148040  0.64178551  0.71074953    -0.17900
C991        C  0.69952741  0.67499464  0.70020673     0.10500
C992        C  0.69144360  0.70075391  0.66888602    -0.06700
C993        C  0.65514664  0.69280696  0.64928132    -0.17900
C994        C  0.62789875  0.65890956  0.65905688     0.10500
S995        S  0.74557964  0.68194716  0.72725962    -0.32900
S996        S  0.58642929  0.64742404  0.62791332    -0.32900
H997        H  0.59090189  0.60129369  0.63059482     0.28500
H998        H  0.75612982  0.72433403  0.71468553     0.28500
H999        H  0.67765959  0.62281244  0.73512711     0.19100
H1000       H  0.64960855  0.71075837  0.62432766     0.19100
C1001       C  0.36737753  0.63450835  0.69535480    -0.06700
C1002       C  0.36086019  0.63359860  0.65786558    -0.17900
C1003       C  0.33484733  0.66402818  0.64068846     0.10500
C1004       C  0.31378753  0.69628672  0.66148577    -0.06700
C1005       C  0.32084359  0.69770102  0.69912609    -0.17900
C1006       C  0.34796134  0.66770488  0.71616536     0.10500
S1007       S  0.33016600  0.65924084  0.59200004    -0.32900
S1008       S  0.35646913  0.67373265  0.76427070    -0.32900
H1009       H  0.39528847  0.65296918  0.76592922     0.28500
H1010       H  0.31652245  0.70234430  0.58476411     0.28500
H1011       H  0.37664484  0.60902416  0.64164549     0.19100
H1012       H  0.30475788  0.72194398  0.71540378     0.19100
C1013       C  0.36843260  0.36697649  0.81210372    -0.06700
C1014       C  0.33898333  0.34749296  0.78913209    -0.17900
C1015       C  0.31214796  0.31411162  0.80175678     0.10500
C1016       C  0.31520373  0.29927036  0.83816727    -0.06700
C1017       C  0.34512227  0.31824104  0.86073094    -0.17900
C1018       C  0.37128620  0.35184075  0.84837091     0.10500
S1019       S  0.27462273  0.29287158  0.76997235    -0.32900
S1020       S  0.40568028  0.37602402  0.88122466    -0.32900
H1021       H  0.40291575  0.41921760  0.86729346     0.28500
H1022       H  0.24793656  0.27178300  0.79454871     0.28500
H1023       H  0.33692318  0.35828684  0.76113647     0.19100
H1024       H  0.34656970  0.30843756  0.88900223     0.19100
C1025       C  0.81550241  0.19921040  0.90715275    -0.06700
C1026       C  0.80331042  0.17471528  0.93781611    -0.17900
C1027       C  0.82917086  0.14248555  0.95321197     0.10500
C1028       C  0.86799979  0.13328629  0.93707596    -0.06700
C1029       C  0.88044428  0.15886465  0.90695383    -0.17900
C1030       C  0.85467358  0.19108163  0.89175376     0.10500
S1031       S  0.81126942  0.11567724  0.99400796    -0.32900
S1032       S  0.87265366  0.21880233  0.85145709    -0.32900
H1033       H  0.83471674  0.21553797  0.83299954     0.28500
H1034       H  0.85366980  0.12044472  0.51102013     0.28500
H1035       H  0.77308149  0.18050084  0.94964084     0.19100
H1036       H  0.91015368  0.15280428  0.89426676     0.19100
C1037       C  0.86755747  0.36652512  0.93832783    -0.06700
C1038       C  0.86503460  0.36448023  0.90045736    -0.17900
C1039       C  0.84050303  0.33299091  0.88300261     0.10500
C1040       C  0.81801031  0.30154369  0.90381681    -0.06700
C1041       C  0.82145270  0.30272100  0.94181463    -0.17900
C1042       C  0.84596718  0.33469911  0.95927087     0.10500
S1043       S  0.83865243  0.33635980  0.83402966    -0.32900
S1044       S  0.84753626  0.33341906  0.00815049    -0.32900
H1045       H  0.88613753  0.35403471  0.01230562     0.28500
H1046       H  0.82261035  0.29421803  0.82725983     0.28500
H1047       H  0.88231295  0.38804580  0.88418516     0.19100
H1048       H  0.80374345  0.27954717  0.95807071     0.19100
C1049       C  0.68793965  0.20011460  0.83408696    -0.06700
C1050       C  0.69690432  0.17931732  0.80106583    -0.17900
C1051       C  0.66936519  0.14884862  0.78562302     0.10500
C1052       C  0.63250937  0.13734959  0.80421727    -0.06700
C1053       C  0.62326199  0.15915552  0.83690835    -0.17900
C1054       C  0.65051280  0.19024346  0.85196318     0.10500
S1055       S  0.68247310  0.12706674  0.74170465    -0.32900
S1056       S  0.63847497  0.21534387  0.89502432    -0.32900
H1057       H  0.59854322  0.19734092  0.89878173     0.28500
H1058       H  0.64163842  0.12778744  0.72844683     0.28500
H1059       H  0.72577149  0.18671111  0.78732702     0.19100
H1060       H  0.59508675  0.15079082  0.85130385     0.19100
C1061       C  0.68869638  0.30072964  0.83425347    -0.06700
C1062       C  0.66009606  0.32067853  0.85755428    -0.17900
C1063       C  0.63341922  0.35370043  0.84532765     0.10500
C1064       C  0.63466287  0.36710126  0.80861157    -0.06700
C1065       C  0.66293614  0.34686340  0.78500537    -0.17900
C1066       C  0.69029820  0.31413505  0.79746972     0.10500
S1067       S  0.60008407  0.37895293  0.87855989    -0.32900
S1068       S  0.72656027  0.29174227  0.76508931    -0.32900
H1069       H  0.75494978  0.27308763  0.78946338     0.28500
H1070       H  0.59960256  0.42112965  0.86247175     0.28500
H1071       H  0.65997096  0.31192788  0.88608536     0.19100
H1072       H  0.66366917  0.35660500  0.75669511     0.19100
loop_ 
_geom_bond_atom_site_label_1 
_geom_bond_atom_site_label_2 
_geom_bond_distance 
_geom_bond_site_symmetry_2 
_ccdc_geom_bond_type 
C1            C2   1.413       .  A
C1            C6   1.403       .  A
C1          C525   1.482       .  S
C2            C3   1.402       .  A
C2          C513   1.488       .  S
C3            C4   1.407       .  A
C3            H8   1.085       .  S
C4            C5   1.422       .  A
C4          C489   1.485       .  S
C5            C6   1.406       .  A
C5          C504   1.497       .  S
C6            H7   1.085       .  S
Zr9          O10   2.433       .  S
Zr9          O11   2.407       .  S
Zr9          O12   2.420       .  S
Zr9          O15   2.426       .  S
Zr9          O17   2.377       .  S
Zr9          O18   2.376       .  S
Zr9          O19   2.401       .  S
Zr9          O20   2.394       .  S
O10          H66   0.990       .  S
O10          H74   0.989       .  S
O11          C31   1.280       .  A
O12          C33   1.283       .  A
O13         Zr23   2.460       .  S
O13          C32   1.290       .  A
O14         Zr22   2.463       .  S
O14          C33   1.290       .  A
O15          C32   1.285       .  A
O16         Zr24   2.440       .  S
O16          C31   1.284       .  A
O17         Zr22   2.392       .  S
O17         Zr24   2.373       .  S
O18         Zr23   2.386       .  S
O18         Zr24   2.371       .  S
O18          H53   0.966       .  S
O19         Zr22   2.403       .  S
O19         Zr39   2.398       .  S
O19          H56   0.967       .  S
O20         Zr23   2.398       .  S
O20         Zr39   2.402       .  S
Zr21         O46   2.438       .  S
Zr21         O40   2.417       .  S
Zr21         O48   2.415       .  S
Zr21         O36   2.414       .  S
Zr21         O27   2.398       .  S
Zr21         O28   2.400       .  S
Zr21         O29   2.373       .  S
Zr21         O30   2.378       .  S
Zr22         O41   2.438       .  S
Zr22         O34   2.434       .  S
Zr22         O35   2.467       .  S
Zr22         O28   2.398       .  S
Zr22         O29   2.388       .  S
Zr23         O25   2.434       .  S
Zr23         O47   2.435       .  S
Zr23         O49   2.459       .  S
Zr23         O27   2.398       .  S
Zr23         O30   2.387       .  S
Zr24         O50   2.435       .  S
Zr24         O51   2.437       .  S
Zr24         O26   2.437       .  S
Zr24         O27   2.403       .  S
Zr24         O28   2.405       .  S
O25          H62   0.990       .  S
O26          H57   0.990       .  S
O26          H71   0.990       .  S
O28          H54   0.966       .  S
O29         Zr39   2.371       .  S
O30         Zr39   2.374       .  S
O30          H55   0.965       .  S
C31         C429   1.467       .  S
C32         C528   1.489       .  S
C33         C477   1.483       .  S
O34          H70   0.990       .  S
O35          C37   1.292       .  A
O36          C37   1.282       .  A
C37         C465   1.490       .  S
O38         Zr39   2.439       .  S
O38          H67   0.990       .  S
Zr39         O42   2.435       .  S
Zr39         O43   2.440       .  S
Zr39         O44   2.437       .  S
O40          C45   1.283       .  A
O41          H58   0.990       .  S
O41          H73   0.990       .  S
O42          H59   0.990       .  S
O43          H63   0.990       .  S
O43          H72   0.990       .  S
O44          C45   1.284       .  A
C45         C441   1.471       .  S
O46          H65   0.990       .  S
O46          H69   0.990       .  S
O47          H61   0.990       .  S
O47          H68   0.990       .  S
O48          C52   1.283       .  A
O49          C52   1.291       .  A
O50          H60   0.990       .  S
O51          H64   0.990       .  S
C52         C453   1.488       .  S
Zr75         O76   2.439       .  S
Zr75         O77   2.409       .  S
Zr75         O78   2.419       .  S
Zr75         O81   2.411       .  S
Zr75         O83   2.380       .  S
Zr75         O84   2.378       .  S
Zr75         O85   2.395       .  S
Zr75         O86   2.397       .  S
O76         H132   0.990       .  S
O76         H140   0.990       .  S
O77          C97   1.280       .  A
O78          C99   1.282       .  A
O79         Zr89   2.464   1_545  S
O79          C98   1.290       .  A
O80         Zr88   2.468       .  S
O80          C99   1.292       .  A
O81          C98   1.283       .  A
O82         Zr90   2.440       .  S
O82          C97   1.284       .  A
O83         Zr88   2.394       .  S
O83         Zr90   2.377       .  S
O84         Zr89   2.388   1_545  S
O84         Zr90   2.369       .  S
O84         H119   0.966       .  S
O85         Zr88   2.402       .  S
O85        Zr105   2.399   1_545  S
O85         H122   0.965       .  S
O86         Zr89   2.400   1_545  S
O86        Zr105   2.398   1_545  S
Zr87        O112   2.440       .  S
Zr87        O106   2.405       .  S
Zr87        O114   2.420       .  S
Zr87        O102   2.409       .  S
Zr87         O93   2.391       .  S
Zr87         O94   2.399       .  S
Zr87         O95   2.373       .  S
Zr87         O96   2.376       .  S
Zr88        O107   2.438   1_545  S
Zr88        O100   2.436       .  S
Zr88        O101   2.476   1_545  S
Zr88         O94   2.404   1_545  S
Zr88         O95   2.387   1_545  S
Zr89         O91   2.434       .  S
Zr89        O113   2.435   1_565  S
Zr89        O115   2.466       .  S
Zr89         O93   2.400       .  S
Zr89         O96   2.387       .  S
Zr90        O116   2.435       .  S
Zr90        O117   2.435       .  S
Zr90         O92   2.436       .  S
Zr90         O93   2.401   1_545  S
Zr90         O94   2.403   1_545  S
O91         H128   0.990       .  S
O92         H123   0.990       .  S
O92         H137   0.990       .  S
O94         H120   0.965       .  S
O95        Zr105   2.374       .  S
O96        Zr105   2.376       .  S
O96         H121   0.966       .  S
C97         C432   1.469       .  S
C98         C420   1.495       .  S
C99         C516   1.490       .  S
O100        H136   0.990       .  S
O101        C103   1.293       .  A
O102        C103   1.281       .  A
C103        C393   1.487       .  S
O104       Zr105   2.439       .  S
O104        H133   0.990       .  S
Zr105       O108   2.436       .  S
Zr105       O109   2.439       .  S
Zr105       O110   2.435       .  S
O106        C111   1.280       .  A
O107        H124   0.990       .  S
O107        H139   0.990       .  S
O108        H125   0.990       .  S
O109        H129   0.990       .  S
O109        H138   0.990       .  S
O110        C111   1.283       .  A
C111        C444   1.468       .  S
O112        H131   0.990       .  S
O112        H135   0.990       .  S
O113        H127   0.990       .  S
O113        H134   0.990       .  S
O114        C118   1.282       .  A
O115        C118   1.291       .  A
O116        H126   0.990       .  S
O117        H130   0.990   1_545  S
C118        C405   1.485       .  S
C141        C142   1.417       .  A
C141        C146   1.403       .  A
C141        C480   1.485       .  S
C142        C143   1.403       .  A
C142        C417   1.484       .  S
C143        C144   1.402       .  A
C143        H148   1.085       .  S
C144        C145   1.417       .  A
C144        C381   1.483       .  S
C145        C146   1.404       .  A
C145        C372   1.487       .  S
C146        H147   1.085       .  S
Zr149       O150   2.440       .  S
Zr149       O151   2.411   1_554  S
Zr149       O152   2.412       .  S
Zr149       O155   2.419   1_455  S
Zr149       O159   2.397       .  S
Zr149       O160   2.394   1_455  S
Zr149       O693   2.379   1_554  S
Zr149       O694   2.377   1_454  S
O150        H206   0.990       .  S
O150        H214   0.990       .  S
O151        C707   1.282       .  A
O152        C173   1.281       .  A
O153       Zr699   2.486   1_554  S
O153        C172   1.295       .  A
O154       Zr698   2.477   1_554  S
O154        C173   1.293       .  A
O155        C172   1.283       .  A
O156       Zr164   2.422       .  S
O156        C171   1.280       .  A
O157       Zr162   2.393       .  S
O157       Zr164   2.375       .  S
O157       Zr685   2.376       .  S
O158       Zr163   2.392       .  S
O158       Zr164   2.377   1_655  S
O158       Zr685   2.376   1_655  S
O158        H193   0.966       .  S
O159       Zr179   2.393       .  S
O159       Zr698   2.399   1_554  S
O159        H196   0.965       .  S
O160       Zr179   2.403   1_655  S
O160       Zr699   2.397   1_554  S
Zr161       O186   2.441       .  S
Zr161       O180   2.401       .  S
Zr161       O188   2.415   1_455  S
Zr161       O176   2.412       .  S
Zr161       O167   2.392   1_455  S
Zr161       O168   2.396       .  S
Zr161       O705   2.378       .  S
Zr161       O706   2.378   1_455  S
Zr162       O174   2.435       .  S
Zr162       O717   2.436       .  S
Zr162       O175   2.473       .  S
Zr162       O690   2.472       .  S
Zr162       O168   2.404       .  S
Zr162       O695   2.404       .  S
Zr162       O705   2.390       .  S
Zr163       O187   2.436       .  S
Zr163       O701   2.435       .  S
Zr163       O189   2.478       .  S
Zr163       O689   2.478       .  S
Zr163       O167   2.403       .  S
Zr163       O696   2.404       .  S
Zr163       O706   2.389       .  S
Zr164       O190   2.436   1_455  S
Zr164       O191   2.435   1_455  S
Zr164       O166   2.435       .  S
Zr164       O167   2.400   1_455  S
Zr164       O168   2.392       .  S
O165       Zr699   2.434   1_554  S
O165        H202   0.990       .  S
O166        H197   0.990       .  S
O166        H211   0.990       .  S
O168        H194   0.965       .  S
O169       Zr179   2.374       .  S
O169       Zr697   2.376   1_554  S
O169       Zr698   2.390   1_554  S
O170       Zr179   2.375   1_655  S
O170       Zr697   2.377   1_654  S
O170       Zr699   2.389   1_554  S
O170        H195   0.965       .  S
C171        C333   1.467   1_455  S
C171        O687   1.282   1_455  A
C172        C345   1.492       .  S
C173        C357   1.487       .  S
O174        H210   0.990       .  S
O175        C177   1.293       .  A
O176        C177   1.282       .  A
C177        C369   1.485       .  S
O178       Zr179   2.439       .  S
O178        H207   0.990       .  S
Zr179       O182   2.436       .  S
Zr179       O183   2.439   1_455  S
Zr179       O184   2.441       .  S
O180        C721   1.280       .  A
O181       Zr698   2.436   1_554  S
O181        H198   0.990       .  S
O181        H213   0.990       .  S
O182        H199   0.990       .  S
O183        H203   0.990       .  S
O183        H212   0.990       .  S
O184        C185   1.285       .  A
C185        C321   1.473   1_455  S
C185        O716   1.282   1_554  A
O186        H205   0.990   1_455  S
O186        H209   0.989       .  S
O187        H201   0.990       .  S
O187        H208   0.990       .  S
O188        C192   1.280       .  A
O189        C192   1.293       .  A
O190        H200   0.990       .  S
O191        H204   0.990       .  S
C192        C501   1.484       .  S
Zr215       O216   2.438       .  S
Zr215       O217   2.411   1_455  S
Zr215       O218   2.407   1_455  S
Zr215       O221   2.409       .  S
Zr215       O225   2.397   1_455  S
Zr215       O226   2.394       .  S
Zr215       O759   2.376   1_455  S
Zr215       O760   2.377       .  S
O216        H272   0.990   1_455  S
O216        H280   0.990   1_455  S
O217        C773   1.281       .  A
O218        C239   1.281       .  A
O219       Zr229   2.476       .  S
O219        C238   1.294       .  A
O220       Zr228   2.459   1_545  S
O220        C239   1.290       .  A
O221        C238   1.282       .  A
O222       Zr230   2.435       .  S
O222        C237   1.283       .  A
O223       Zr230   2.374       .  S
O223       Zr751   2.372   1_654  S
O223       Zr764   2.391   1_544  S
O224       Zr230   2.370   1_455  S
O224       Zr751   2.379   1_554  S
O224       Zr765   2.394   1_545  S
O224        H259   0.966       .  S
O225       Zr228   2.407   1_545  S
O225       Zr245   2.397   1_645  S
O225        H262   0.965       .  S
O226       Zr229   2.402       .  S
O226       Zr245   2.401   1_545  S
Zr227       O252   2.438       .  S
Zr227       O246   2.408       .  S
Zr227       O254   2.407   1_655  S
Zr227       O242   2.404       .  S
Zr227       O233   2.395   1_655  S
Zr227       O234   2.391       .  S
Zr227       O771   2.372   1_554  S
Zr227       O772   2.378   1_654  S
Zr228       O247   2.437       .  S
Zr228       O776   2.434   1_565  S
Zr228       O777   2.477       .  S
Zr228       O235   2.386       .  S
Zr228       O759   2.396   1_565  S
Zr228       O770   2.397       .  S
Zr229       O231   2.433   1_545  S
Zr229       O789   2.435       .  S
Zr229       O791   2.480   1_545  S
Zr229       O236   2.388   1_545  S
Zr229       O760   2.395       .  S
Zr229       O769   2.400   1_545  S
Zr230       O256   2.436   1_655  S
Zr230       O257   2.436       .  S
Zr230       O232   2.435       .  S
Zr230       O233   2.402   1_645  S
Zr230       O234   2.396   1_545  S
O231        H268   0.990       .  S
O232        H263   0.990       .  S
O232        H277   0.990       .  S
O233       Zr765   2.398       .  S
O234       Zr764   2.397   1_554  S
O234        H260   0.965       .  S
O235       Zr245   2.376   1_655  S
O235       Zr763   2.373       .  S
O236       Zr245   2.375       .  S
O236       Zr763   2.372   1_455  S
O236        H261   0.965       .  S
C237        C324   1.471       .  S
C237        O753   1.281   1_554  A
C238        C384   1.494       .  S
C239        C492   1.489       .  S
O240       Zr764   2.434   1_544  S
O240        H276   0.990       .  S
O241       Zr764   2.466   1_554  S
O241        C243   1.291       .  A
O242        C243   1.281       .  A
C243        C297   1.494       .  S
O244       Zr245   2.435       .  S
O244        H273   0.990   1_565  S
Zr245       O248   2.435   1_455  S
Zr245       O249   2.439       .  S
Zr245       O250   2.431       .  S
O246        C787   1.281   1_554  A
O247        H264   0.990       .  S
O247        H279   0.990       .  S
O248        H265   0.990       .  S
O249        H269   0.990       .  S
O249        H278   0.990       .  S
O250        C251   1.282   1_455  A
C251        C336   1.470       .  S
C251        O782   1.282       .  A
O252        H271   0.990   1_655  S
O252        H275   0.990       .  S
O253       Zr765   2.434   1_545  S
O253        H267   0.990       .  S
O253        H274   0.990       .  S
O254        C258   1.280       .  A
O255       Zr765   2.484       .  S
O255        C258   1.296       .  A
O256        H266   0.990       .  S
O257        H270   0.990   1_655  S
C258        C312   1.500       .  S
C281        C282   1.418       .  A
C281        C286   1.405       .  A
C281        C408   1.493       .  S
C282        C283   1.407       .  A
C282        C468   1.486       .  S
C283        C284   1.406       .  A
C283        H288   1.085       .  S
C284        C285   1.419       .  A
C284        C360   1.492       .  S
C285        C286   1.406       .  A
C285        C309   1.490       .  S
C286        H287   1.085       .  S
C289        C290   1.413       .  A
C289        C294   1.403       .  A
C289        C396   1.489       .  S
C290        C291   1.404       .  A
C290        C456   1.480       .  S
C291        C292   1.404       .  A
C291        H296   1.085       .  S
C292        C293   1.421       .  A
C292        C348   1.497       .  S
C293        C294   1.408       .  A
C293        C300   1.483       .  S
C294        H295   1.085       .  S
C297        C298   1.411       .  A
C297        C302   1.416       .  A
C298        C299   1.398       .  A
C298        H307   1.084       .  S
C299        C300   1.409       .  A
C299        S303   1.804       .  S
C300        C301   1.406       .  A
C301        C302   1.405       .  A
C301        H308   1.084       .  S
C302        S304   1.801   1_554  S
S303        H306   1.406       .  S
S304        H841   1.407       .  S
H305        S840   1.407       .  S
C309        C310   1.398       .  A
C309        C314   1.414       .  A
C310        C311   1.405       .  A
C310        H319   1.081       .  S
C311        C312   1.425       .  A
C311        S315   1.808       .  S
C312        C313   1.407       .  A
C313        C314   1.405       .  A
C313        H320   1.084       .  S
C314        S316   1.803       .  S
S315        H318   1.407       .  S
S316        H317   1.406       .  S
C321        C326   1.414   1_655  A
C321        C858   1.401       .  A
C322        C323   1.388       .  A
C322        C857   1.399       .  A
C322        H331   1.085       .  S
C323        C860   1.411       .  A
C323        S327   1.799       .  S
C324        C325   1.404   1_655  A
C324        C859   1.410       .  A
C325        C326   1.405       .  A
C325        H332   1.084       .  S
C326        S328   1.801       .  S
S327        H330   1.406       .  S
S328        H329   1.406       .  S
C333        C338   1.413   1_655  A
C333        C870   1.399       .  A
C334        C335   1.391       .  A
C334        C869   1.398       .  A
C334        H343   1.084       .  S
C335        C872   1.409       .  A
C335        S339   1.803   1_556  S
C336        C337   1.404   1_655  A
C336        C871   1.408       .  A
C337        C338   1.403       .  A
C337        H344   1.084       .  S
C338        S340   1.802       .  S
S339        H342   1.407       .  S
S340        H341   1.405       .  S
C345        C346   1.406       .  A
C345        C350   1.414       .  A
C346        C347   1.410       .  A
C346        H355   1.084       .  S
C347        C348   1.417       .  A
C347        S351   1.803       .  S
C348        C349   1.405       .  A
C349        C350   1.407       .  A
C349        H356   1.083       .  S
C350        S352   1.807       .  S
S351        H354   1.405       .  S
S352        H353   1.407       .  S
C357        C358   1.405       .  A
C357        C362   1.414       .  A
C358        C359   1.401       .  A
C358        H367   1.084       .  S
C359        C360   1.415       .  A
C359        S363   1.806       .  S
C360        C361   1.407       .  A
C361        C362   1.409       .  A
C361        H368   1.083       .  S
C362        S364   1.803   1_554  S
S363        H366   1.403       .  S
S364        H901   1.405       .  S
H365        S900   1.405       .  S
C369        C370   1.405       .  A
C369        C374   1.415       .  A
C370        C371   1.408       .  A
C370        H379   1.084       .  S
C371        C372   1.416       .  A
C371        S375   1.804       .  S
C372        C373   1.402       .  A
C373        C374   1.399       .  A
C373        H380   1.084       .  S
C374        S376   1.803       .  S
S375        H378   1.405       .  S
S376        H377   1.406       .  S
C381        C382   1.405       .  A
C381        C386   1.409       .  A
C382        C383   1.405       .  A
C382        H391   1.084       .  S
C383        C384   1.416       .  A
C383        S387   1.800       .  S
C384        C385   1.410       .  A
C385        C386   1.399       .  A
C385        H392   1.084       .  S
C386        S388   1.803       .  S
S387        H926   1.407       .  S
S388        H389   1.406       .  S
H390        S923   1.406       .  S
C393        C394   1.405       .  A
C393        C398   1.414       .  A
C394        C395   1.400       .  A
C394        H403   1.084       .  S
C395        C396   1.414       .  A
C395        S399   1.809       .  S
C396        C397   1.407       .  A
C397        C398   1.408       .  A
C397        H404   1.083       .  S
C398        S400   1.803       .  S
S399        H402   1.401       .  S
S400        H401   1.406       .  S
C405        C406   1.403       .  A
C405        C410   1.416       .  A
C406        C407   1.404       .  A
C406        H415   1.083       .  S
C407        C408   1.413       .  A
C407        S411   1.807       .  S
C408        C409   1.406       .  A
C409        C410   1.408       .  A
C409        H416   1.084       .  S
C410        S412   1.804       .  S
S411        H414   1.406       .  S
S412        H413   1.404       .  S
C417        C418   1.405       .  A
C417        C422   1.412       .  A
C418        C419   1.403       .  A
C418        H427   1.084       .  S
C419        C420   1.417       .  A
C419        S423   1.798       .  S
C420        C421   1.410       .  A
C421        C422   1.401       .  A
C421        H428   1.084       .  S
C422        S424   1.806       .  S
S423        H426   1.408       .  S
S424        H425   1.403       .  S
C429        C430   1.401       .  A
C429        C434   1.413       .  A
C430        C431   1.397       .  A
C430        H439   1.084       .  S
C431        C432   1.410       .  A
C431        S435   1.807       .  S
C432        C433   1.402       .  A
C433        C434   1.401       .  A
C433        H440   1.084       .  S
C434        S436   1.804       .  S
S435        H438   1.407       .  S
S436        H437   1.405       .  S
C441        C442   1.405       .  A
C441        C446   1.410       .  A
C442        C443   1.404       .  A
C442        H451   1.084       .  S
C443        C444   1.413       .  A
C443        S447   1.802       .  S
C444        C445   1.401       .  A
C445        C446   1.390       .  A
C445        H452   1.085       .  S
C446        S448   1.801       .  S
S447        H450   1.405       .  S
S448        H449   1.407       .  S
C453        C454   1.407       .  A
C453        C458   1.418       .  A
C454        C455   1.404       .  A
C454        H463   1.084       .  S
C455        C456   1.413       .  A
C455        S459   1.804       .  S
C456        C457   1.399       .  A
C457        C458   1.397       .  A
C457        H464   1.082       .  S
C458        S460   1.801       .  S
S459        H462   1.404       .  S
S460        H461   1.408       .  S
C465        C466   1.406       .  A
C465        C470   1.416       .  A
C466        C467   1.398       .  A
C466        H475   1.084       .  S
C467        C468   1.412       .  A
C467        S471   1.804       .  S
C468        C469   1.407       .  A
C469        C470   1.408       .  A
C469        H476   1.084       .  S
C470        S472   1.802       .  S
S471        H474   1.404       .  S
S472        H473   1.406       .  S
C477        C478   1.405       .  A
C477        C482   1.413       .  A
C478        C479   1.409       .  A
C478        H487   1.084       .  S
C479        C480   1.418       .  A
C479        S483   1.806       .  S
C480        C481   1.401       .  A
C481        C482   1.397       .  A
C481        H488   1.084       .  S
C482        S484   1.802       .  S
S483        H486   1.400       .  S
S484        H485   1.407       .  S
C489        C490   1.406       .  A
C489        C494   1.410       .  A
C490        C491   1.404       .  A
C490        H499   1.084       .  S
C491        C492   1.416       .  A
C491        S495   1.802       .  S
C492        C493   1.408       .  A
C493        C494   1.399       .  A
C493        H500   1.084       .  S
C494        S496   1.799       .  S
S495       H1034   1.407       .  S
S496        H497   1.406       .  S
H498       S1031   1.407   1_554  S
C501        C502   1.400       .  A
C501        C506   1.415       .  A
C502        C503   1.400       .  A
C502        H511   1.084       .  S
C503        C504   1.420       .  A
C503        S507   1.809       .  S
C504        C505   1.409       .  A
C505        C506   1.411       .  A
C505        H512   1.084       .  S
C506        S508   1.803       .  S
S507        H510   1.401       .  S
S508        H509   1.404       .  S
C513        C514   1.405       .  A
C513        C518   1.409       .  A
C514        C515   1.407       .  A
C514        H523   1.083       .  S
C515        C516   1.415       .  A
C515        S519   1.802       .  S
C516        C517   1.407       .  A
C517        C518   1.405       .  A
C517        H524   1.083       .  S
C518        S520   1.807       .  S
S519        H522   1.407       .  S
S520        H521   1.406       .  S
C525        C526   1.399       .  A
C525        C530   1.416       .  A
C526        C527   1.398       .  A
C526        H535   1.084       .  S
C527        C528   1.416       .  A
C527        S531   1.801       .  S
C528        C529   1.407       .  A
C529        C530   1.407       .  A
C529        H536   1.084       .  S
C530        S532   1.806       .  S
S531        H534   1.408       .  S
S532        H533   1.403       .  S
C537        C538   1.412       .  A
C537        C542   1.400       .  A
C537       C1061   1.477       .  S
C538        C539   1.402       .  A
C538       C1049   1.485       .  S
C539        C540   1.407       .  A
C539        H544   1.085       .  S
C540        C541   1.421       .  A
C540       C1025   1.485       .  S
C541        C542   1.403       .  A
C541       C1040   1.491       .  S
C542        H543   1.085       .  S
Zr545       O546   2.437       .  S
Zr545       O547   2.415       .  S
Zr545       O548   2.413       .  S
Zr545       O551   2.409       .  S
Zr545       O553   2.374       .  S
Zr545       O554   2.378       .  S
Zr545       O555   2.399       .  S
Zr545       O556   2.396       .  S
O546        H602   0.990       .  S
O546        H610   0.990       .  S
O547        C567   1.281       .  A
O548        C569   1.281       .  A
O549       Zr559   2.460       .  S
O549        C568   1.290       .  A
O550       Zr558   2.472       .  S
O550        C569   1.292       .  A
O551        C568   1.281       .  A
O552       Zr560   2.436       .  S
O552        C567   1.284       .  A
O553       Zr558   2.389       .  S
O553       Zr560   2.377       .  S
O554       Zr559   2.387       .  S
O554       Zr560   2.369       .  S
O554        H589   0.966       .  S
O555       Zr558   2.399       .  S
O555       Zr575   2.406       .  S
O555        H592   0.967       .  S
O556       Zr559   2.400       .  S
O556       Zr575   2.401       .  S
Zr557       O582   2.438       .  S
Zr557       O576   2.414       .  S
Zr557       O584   2.420       .  S
Zr557       O572   2.419       .  S
Zr557       O563   2.398       .  S
Zr557       O564   2.400       .  S
Zr557       O565   2.375       .  S
Zr557       O566   2.376       .  S
Zr558       O577   2.435       .  S
Zr558       O570   2.435       .  S
Zr558       O571   2.461       .  S
Zr558       O564   2.403       .  S
Zr558       O565   2.392       .  S
Zr559       O561   2.435       .  S
Zr559       O583   2.435       .  S
Zr559       O585   2.461       .  S
Zr559       O563   2.396       .  S
Zr559       O566   2.387       .  S
Zr560       O586   2.436       .  S
Zr560       O587   2.436       .  S
Zr560       O562   2.435       .  S
Zr560       O563   2.400       .  S
Zr560       O564   2.400       .  S
O561        H598   0.990       .  S
O562        H593   0.990       .  S
O562        H607   0.990       .  S
O564        H590   0.966       .  S
O565       Zr575   2.375       .  S
O566       Zr575   2.368       .  S
O566        H591   0.965       .  S
C567        C965   1.469       .  S
C568       C1064   1.475       .  S
C569       C1013   1.486       .  S
O570        H606   0.990       .  S
O571        C573   1.290       .  A
O572        C573   1.282       .  A
C573       C1001   1.477       .  S
O574       Zr575   2.438       .  S
O574        H603   0.990       .  S
Zr575       O578   2.437       .  S
Zr575       O579   2.439       .  S
Zr575       O580   2.443       .  S
O576        C581   1.281       .  A
O577        H594   0.990       .  S
O577        H609   0.990       .  S
O578        H595   0.990       .  S
O579        H599   0.990       .  S
O579        H608   0.990       .  S
O580        C581   1.285       .  A
C581        C977   1.470       .  S
O582        H601   0.989       .  S
O582        H605   0.990       .  S
O583        H597   0.990       .  S
O583        H604   0.990       .  S
O584        C588   1.284       .  A
O585        C588   1.291       .  A
O586        H596   0.990       .  S
O587        H600   0.990       .  S
C588        C989   1.490       .  S
Zr611       O612   2.438       .  S
Zr611       O613   2.410       .  S
Zr611       O614   2.417       .  S
Zr611       O617   2.416       .  S
Zr611       O619   2.378       .  S
Zr611       O620   2.377       .  S
Zr611       O621   2.400       .  S
Zr611       O622   2.397       .  S
O612        H668   0.990       .  S
O612        H676   0.990       .  S
O613        C633   1.281       .  A
O614        C635   1.283       .  A
O615       Zr625   2.472   1_545  S
O615        C634   1.292       .  A
O616       Zr624   2.465       .  S
O616        C635   1.291       .  A
O617        C634   1.284       .  A
O618       Zr626   2.442       .  S
O618        C633   1.284       .  A
O619       Zr624   2.393       .  S
O619       Zr626   2.376       .  S
O620       Zr625   2.387   1_545  S
O620       Zr626   2.368       .  S
O620        H655   0.966       .  S
O621       Zr624   2.404       .  S
O621       Zr641   2.398   1_545  S
O621        H658   0.966       .  S
O622       Zr625   2.401   1_545  S
O622       Zr641   2.399   1_545  S
Zr623       O648   2.439       .  S
Zr623       O642   2.415       .  S
Zr623       O650   2.418       .  S
Zr623       O638   2.410       .  S
Zr623       O629   2.396       .  S
Zr623       O630   2.401       .  S
Zr623       O631   2.373       .  S
Zr623       O632   2.378       .  S
Zr624       O643   2.439   1_545  S
Zr624       O636   2.434       .  S
Zr624       O637   2.472   1_545  S
Zr624       O630   2.400   1_545  S
Zr624       O631   2.384   1_545  S
Zr625       O627   2.434       .  S
Zr625       O649   2.435   1_565  S
Zr625       O651   2.465       .  S
Zr625       O629   2.396       .  S
Zr625       O632   2.389       .  S
Zr626       O652   2.436       .  S
Zr626       O653   2.436       .  S
Zr626       O628   2.436       .  S
Zr626       O629   2.403   1_545  S
Zr626       O630   2.406   1_545  S
O627        H664   0.990       .  S
O628        H659   0.990       .  S
O628        H673   0.990       .  S
O630        H656   0.966       .  S
O631       Zr641   2.373       .  S
O632       Zr641   2.373       .  S
O632        H657   0.966       .  S
C633        C968   1.470       .  S
C634        C956   1.497       .  S
C635       C1052   1.491       .  S
O636        H672   0.990       .  S
O637        C639   1.292       .  A
O638        C639   1.281       .  A
C639        C929   1.486       .  S
O640       Zr641   2.439       .  S
O640        H669   0.990       .  S
Zr641       O644   2.437       .  S
Zr641       O645   2.438       .  S
Zr641       O646   2.432       .  S
O642        C647   1.282       .  A
O643        H660   0.990       .  S
O643        H675   0.990       .  S
O644        H661   0.990       .  S
O645        H665   0.990       .  S
O645        H674   0.990       .  S
O646        C647   1.283       .  A
C647        C980   1.469       .  S
O648        H667   0.990       .  S
O648        H671   0.990       .  S
O649        H663   0.990       .  S
O649        H670   0.990       .  S
O650        C654   1.284       .  A
O651        C654   1.292       .  A
O652        H662   0.990       .  S
O653        H666   0.990       .  S
C654        C941   1.494       .  S
C677        C678   1.416       .  A
C677        C682   1.405       .  A
C677       C1016   1.484       .  S
C678        C679   1.403       .  A
C678        C953   1.486       .  S
C679        C680   1.405       .  A
C679        H684   1.085       .  S
C680        C681   1.416       .  A
C680        C917   1.486       .  S
C681        C682   1.404       .  A
C681        C908   1.487       .  S
C682        H683   1.085       .  S
Zr685       O686   2.440       .  S
Zr685       O687   2.417   1_455  S
Zr685       O688   2.410       .  S
Zr685       O691   2.415   1_455  S
Zr685       O695   2.401       .  S
Zr685       O696   2.396   1_455  S
O686        H742   0.990       .  S
O686        H750   0.990       .  S
O688        C709   1.280       .  A
O689        C708   1.293       .  A
O690        C709   1.292       .  A
O691        C708   1.282       .  A
O692       Zr700   2.424   1_455  S
O692        C707   1.281       .  A
O693       Zr698   2.394       .  S
O693       Zr700   2.377   1_455  S
O694       Zr699   2.392       .  S
O694       Zr700   2.375       .  S
O694        H729   0.966       .  S
O695       Zr715   2.399       .  S
O695        H732   0.966       .  S
O696       Zr715   2.405   1_655  S
Zr697       O722   2.439   1_455  S
Zr697       O716   2.410       .  S
Zr697       O724   2.408   1_455  S
Zr697       O712   2.414       .  S
Zr697       O703   2.392   1_455  S
Zr697       O704   2.395       .  S
Zr698       O710   2.434       .  S
Zr698       O711   2.473       .  S
Zr698       O704   2.401       .  S
Zr699       O723   2.436       .  S
Zr699       O725   2.483       .  S
Zr699       O703   2.402       .  S
Zr700       O726   2.436       .  S
Zr700       O727   2.436       .  S
Zr700       O702   2.437   1_655  S
Zr700       O703   2.399       .  S
Zr700       O704   2.396   1_655  S
O701        H738   0.990       .  S
O702        H733   0.990       .  S
O702        H747   0.990       .  S
O704        H730   0.965       .  S
O705       Zr715   2.372       .  S
O706       Zr715   2.376   1_655  S
O706        H731   0.965       .  S
C707        C869   1.465   1_455  S
C708        C881   1.489       .  S
C709        C893   1.486       .  S
O710        H746   0.990       .  S
O711        C713   1.294       .  A
O712        C713   1.282       .  A
C713        C905   1.495       .  S
O714       Zr715   2.438       .  S
O714        H743   0.990       .  S
Zr715       O718   2.438       .  S
Zr715       O719   2.438   1_455  S
Zr715       O720   2.433       .  S
O717        H734   0.991       .  S
O717        H749   0.990       .  S
O718        H735   0.990       .  S
O719        H739   0.990       .  S
O719        H748   0.990       .  S
O720        C721   1.282       .  A
C721        C857   1.467   1_455  S
O722        H741   0.990       .  S
O722        H745   0.989   1_655  S
O723        H737   0.990       .  S
O723        H744   0.990       .  S
O724        C728   1.280       .  A
O725        C728   1.295       .  A
O726        H736   0.990       .  S
O727        H740   0.990       .  S
C728       C1037   1.481       .  S
Zr751       O752   2.438       .  S
Zr751       O753   2.413   1_455  S
Zr751       O754   2.412   1_455  S
Zr751       O757   2.404       .  S
Zr751       O761   2.393   1_455  S
Zr751       O762   2.398       .  S
O752        H808   0.990   1_455  S
O752        H816   0.990   1_455  S
O754        C775   1.282       .  A
O755       Zr765   2.478   1_546  S
O755        C774   1.294       .  A
O756       Zr764   2.460   1_545  S
O756        C775   1.290       .  A
O757        C774   1.280       .  A
O758       Zr766   2.436       .  S
O758        C773   1.283       .  A
O759       Zr766   2.372       .  S
O760       Zr766   2.368   1_455  S
O760        H795   0.966       .  S
O761       Zr764   2.401   1_545  S
O761       Zr781   2.398   1_645  S
O761        H798   0.965       .  S
O762       Zr765   2.403   1_546  S
O762       Zr781   2.399   1_545  S
Zr763       O788   2.435       .  S
Zr763       O782   2.416       .  S
Zr763       O790   2.416   1_655  S
Zr763       O778   2.406       .  S
Zr763       O769   2.396   1_655  S
Zr763       O770   2.397       .  S
Zr764       O783   2.436       .  S
Zr764       O771   2.384       .  S
Zr765       O767   2.435   1_554  S
Zr765       O772   2.389   1_554  S
Zr766       O792   2.435   1_655  S
Zr766       O793   2.434       .  S
Zr766       O768   2.437       .  S
Zr766       O769   2.404   1_645  S
Zr766       O770   2.402   1_545  S
O767        H804   0.990       .  S
O768        H799   0.990       .  S
O768        H813   0.990       .  S
O770        H796   0.965       .  S
O771       Zr781   2.375   1_655  S
O772       Zr781   2.374       .  S
O772        H797   0.966       .  S
C773        C860   1.471       .  S
C774        C920   1.481       .  S
C775       C1028   1.493       .  S
O776        H812   0.989       .  S
O777        C779   1.293       .  A
O778        C779   1.281       .  A
C779        C833   1.501       .  S
O780       Zr781   2.437       .  S
O780        H809   0.990   1_565  S
Zr781       O784   2.436   1_455  S
Zr781       O785   2.438       .  S
Zr781       O786   2.432       .  S
O783        H800   0.990       .  S
O783        H815   0.990       .  S
O784        H801   0.990       .  S
O785        H805   0.990       .  S
O785        H814   0.990       .  S
O786        C787   1.283   1_455  A
C787        C872   1.468       .  S
O788        H807   0.990   1_655  S
O788        H811   0.990       .  S
O789        H803   0.990       .  S
O789        H810   0.990       .  S
O790        C794   1.281       .  A
O791        C794   1.295       .  A
O792        H802   0.990       .  S
O793        H806   0.990   1_645  S
C794        C848   1.504       .  S
C817        C818   1.418       .  A
C817        C822   1.407       .  A
C817        C944   1.486       .  S
C818        C819   1.405       .  A
C818       C1004   1.493       .  S
C819        C820   1.404       .  A
C819        H824   1.085       .  S
C820        C821   1.417       .  A
C820        C896   1.482       .  S
C821        C822   1.406       .  A
C821        C845   1.495       .  S
C822        H823   1.085       .  S
C825        C826   1.415       .  A
C825        C830   1.404       .  A
C825        C932   1.483       .  S
C826        C827   1.402       .  A
C826        C992   1.486       .  S
C827        C828   1.405       .  A
C827        H832   1.085       .  S
C828        C829   1.420       .  A
C828        C884   1.486       .  S
C829        C830   1.405       .  A
C829        C836   1.489       .  S
C830        H831   1.085       .  S
C833        C834   1.411       .  A
C833        C838   1.417       .  A
C834        C835   1.399       .  A
C834        H843   1.083       .  S
C835        C836   1.411       .  A
C835        S839   1.805       .  S
C836        C837   1.408       .  A
C837        C838   1.408       .  A
C837        H844   1.084       .  S
C838        S840   1.801       .  S
S839        H842   1.404       .  S
C845        C846   1.398       .  A
C845        C850   1.415       .  A
C846        C847   1.405       .  A
C846        H855   1.080       .  S
C847        C848   1.426       .  A
C847        S851   1.809       .  S
C848        C849   1.408       .  A
C849        C850   1.407       .  A
C849        H856   1.083       .  S
C850        S852   1.804       .  S
S851        H854   1.406       .  S
S852        H853   1.407       .  S
C857        C862   1.413   1_655  A
C858        C859   1.390       .  A
C858        H867   1.085   1_554  S
C859        S863   1.799   1_554  S
C860        C861   1.405   1_655  A
C861        C862   1.404       .  A
C861        H868   1.084       .  S
C862        S864   1.802       .  S
S863        H866   1.407   1_556  S
S864        H865   1.406       .  S
C869        C874   1.414   1_655  A
C870        C871   1.393       .  A
C870        H879   1.084       .  S
C871        S875   1.803       .  S
C872        C873   1.403   1_655  A
C873        C874   1.403       .  A
C873        H880   1.084       .  S
C874        S876   1.803       .  S
S875        H878   1.407       .  S
S876        H877   1.404       .  S
C881        C882   1.407       .  A
C881        C886   1.414       .  A
C882        C883   1.409       .  A
C882        H891   1.084       .  S
C883        C884   1.415       .  A
C883        S887   1.805       .  S
C884        C885   1.402       .  A
C885        C886   1.402       .  A
C885        H892   1.083       .  S
C886        S888   1.807       .  S
S887        H890   1.405       .  S
S888        H889   1.407       .  S
C893        C894   1.406       .  A
C893        C898   1.414       .  A
C894        C895   1.400       .  A
C894        H903   1.084       .  S
C895        C896   1.413       .  A
C895        S899   1.809       .  S
C896        C897   1.405       .  A
C897        C898   1.406       .  A
C897        H904   1.084       .  S
C898        S900   1.802       .  S
S899        H902   1.403       .  S
C905        C906   1.406       .  A
C905        C910   1.421       .  A
C906        C907   1.406       .  A
C906        H915   1.084       .  S
C907        C908   1.416       .  A
C907        S911   1.804       .  S
C908        C909   1.399       .  A
C909        C910   1.401       .  A
C909        H916   1.083       .  S
C910        S912   1.800       .  S
S911        H914   1.405       .  S
S912        H913   1.407       .  S
C917        C918   1.406       .  A
C917        C922   1.414       .  A
C918        C919   1.407       .  A
C918        H927   1.083       .  S
C919        C920   1.414       .  A
C919        S923   1.802   1_556  S
C920        C921   1.403       .  A
C921        C922   1.399       .  A
C921        H928   1.084       .  S
C922        S924   1.807       .  S
S924        H925   1.404       .  S
C929        C930   1.405       .  A
C929        C934   1.415       .  A
C930        C931   1.399       .  A
C930        H939   1.084       .  S
C931        C932   1.413       .  A
C931        S935   1.809       .  S
C932        C933   1.406       .  A
C933        C934   1.407       .  A
C933        H940   1.084       .  S
C934        S936   1.802       .  S
S935        H938   1.402       .  S
S936        H937   1.406       .  S
C941        C942   1.410       .  A
C941        C946   1.417       .  A
C942        C943   1.405       .  A
C942        H951   1.082       .  S
C943        C944   1.407       .  A
C943        S947   1.804       .  S
C944        C945   1.404       .  A
C945        C946   1.404       .  A
C945        H952   1.084       .  S
C946        S948   1.801       .  S
S947        H950   1.406       .  S
S948        H949   1.407       .  S
C953        C954   1.406       .  A
C953        C958   1.412       .  A
C954        C955   1.406       .  A
C954        H963   1.084       .  S
C955        C956   1.417       .  A
C955        S959   1.798       .  S
C956        C957   1.409       .  A
C957        C958   1.400       .  A
C957        H964   1.084       .  S
C958        S960   1.807       .  S
S959        H962   1.407       .  S
S960        H961   1.402       .  S
C965        C966   1.401       .  A
C965        C970   1.412       .  A
C966        C967   1.399       .  A
C966        H975   1.083       .  S
C967        C968   1.411       .  A
C967        S971   1.806       .  S
C968        C969   1.402       .  A
C969        C970   1.402       .  A
C969        H976   1.084       .  S
C970        S972   1.801       .  S
S971        H974   1.407       .  S
S972        H973   1.407       .  S
C977        C978   1.403       .  A
C977        C982   1.411       .  A
C978        C979   1.403       .  A
C978        H987   1.084       .  S
C979        C980   1.414       .  A
C979        S983   1.803       .  S
C980        C981   1.401       .  A
C981        C982   1.394       .  A
C981        H988   1.085       .  S
C982        S984   1.802       .  S
S983        H986   1.406       .  S
S984        H985   1.406       .  S
C989        C990   1.407       .  A
C989        C994   1.417       .  A
C990        C991   1.406       .  A
C990        H999   1.084       .  S
C991        C992   1.416       .  A
C991        S995   1.805       .  S
C992        C993   1.399       .  A
C993        C994   1.398       .  A
C993       H1000   1.082       .  S
C994        S996   1.800       .  S
S995        H998   1.405       .  S
S996        H997   1.408       .  S
C1001      C1002   1.399       .  A
C1001      C1006   1.415       .  A
C1002      C1003   1.398       .  A
C1002      H1011   1.084       .  S
C1003      C1004   1.419       .  A
C1003      S1007   1.808       .  S
C1004      C1005   1.408       .  A
C1005      C1006   1.409       .  A
C1005      H1012   1.083       .  S
C1006      S1008   1.805       .  S
S1007      H1010   1.403       .  S
S1008      H1009   1.405       .  S
C1013      C1014   1.406       .  A
C1013      C1018   1.415       .  A
C1014      C1015   1.409       .  A
C1014      H1023   1.084       .  S
C1015      C1016   1.418       .  A
C1015      S1019   1.807       .  S
C1016      C1017   1.400       .  A
C1017      C1018   1.397       .  A
C1017      H1024   1.084       .  S
C1018      S1020   1.802       .  S
S1019      H1022   1.402       .  S
S1020      H1021   1.406       .  S
C1025      C1026   1.406       .  A
C1025      C1030   1.409       .  A
C1026      C1027   1.404       .  A
C1026      H1035   1.084       .  S
C1027      C1028   1.416       .  A
C1027      S1031   1.801       .  S
C1028      C1029   1.410       .  A
C1029      C1030   1.399       .  A
C1029      H1036   1.084       .  S
C1030      S1032   1.799       .  S
S1032      H1033   1.406       .  S
C1037      C1038   1.401       .  A
C1037      C1042   1.415       .  A
C1038      C1039   1.399       .  A
C1038      H1047   1.084       .  S
C1039      C1040   1.420       .  A
C1039      S1043   1.810       .  S
C1040      C1041   1.406       .  A
C1041      C1042   1.409       .  A
C1041      H1048   1.084       .  S
C1042      S1044   1.804   1_556  S
S1043      H1046   1.401       .  S
S1044      H1045   1.403       .  S
C1049      C1050   1.404       .  A
C1049      C1054   1.408       .  A
C1050      C1051   1.404       .  A
C1050      H1059   1.084       .  S
C1051      C1052   1.416       .  A
C1051      S1055   1.802       .  S
C1052      C1053   1.409       .  A
C1053      C1054   1.405       .  A
C1053      H1060   1.083       .  S
C1054      S1056   1.806       .  S
S1055      H1058   1.408       .  S
S1056      H1057   1.407       .  S
C1061      C1062   1.401       .  A
C1061      C1066   1.415       .  A
C1062      C1063   1.395       .  A
C1062      H1071   1.084       .  S
C1063      C1064   1.412       .  A
C1063      S1067   1.804       .  S
C1064      C1065   1.404       .  A
C1065      C1066   1.405       .  A
C1065      H1072   1.084       .  S
C1066      S1068   1.807       .  S
S1067      H1070   1.406       .  S
S1068      H1069   1.402       .  S
