geometry optimzed in LAMMPS
_audit_creation_date              2020-11-30 
_audit_creation_method            'lammps2cif' 
_symmetry_space_group_name_H-M    'P1' 
_symmetry_Int_Tables_number       1 
_symmetry_cell_setting            triclinic 
loop_ 
_symmetry_equiv_pos_as_xyz 
  x,y,z 
_cell_length_a                    35.805222494195974 
_cell_length_b                    37.14709129728603 
_cell_length_c                    33.97857275616973 
_cell_angle_alpha                 90.21310135063409 
_cell_angle_beta                  90.01707418486623 
_cell_angle_gamma                 90.00227872332503 
loop_ 
_atom_site_label 
_atom_site_type_symbol 
_atom_site_fract_x 
_atom_site_fract_y 
_atom_site_fract_z 
_atom_site_charge 
O1          O  0.93149920  0.06203981  0.07168411    -0.57000
C2          C  0.93188223  0.13217198  0.47273037     0.75630
O3          O  0.91039038  0.01499318  0.45775165    -0.58160
C4          C  0.92762438  0.02810344  0.07360433     0.75600
C5          C  0.82362589  0.07161685  0.50074165     0.78000
Cd6        Cd  0.90382622  0.06594880  0.00397751     1.37470
O7          O  0.94113876  0.12218887  0.50702490    -0.56990
O8          O  0.84176888  0.08708376  0.02812287    -0.55800
C9          C  0.94557942  0.01744898  0.45540601     0.77960
O10         O  0.84293102  0.05385649  0.47637975    -0.58230
O11         O  0.90755873  0.11350227  0.45507098    -0.56630
O12         O  0.90919129  0.01333019  0.04630925    -0.56620
O13         O  0.96008706  0.04471778  0.47168970    -0.55790
O14         O  0.54414902  0.12310805  0.49085171    -0.57000
C15         C  0.55721138  0.02886748  0.05771681     0.75630
O16         O  0.57363964  0.01666722  0.44152015    -0.58160
C17         C  0.55445758  0.13314726  0.45690303     0.75600
C18         C  0.66112760  0.07435229  0.49410666     0.78000
Cd19       Cd  0.58122887  0.06715541  0.48901924     1.37460
O20         O  0.55245573  0.06270369  0.05569835    -0.56990
O21         O  0.63983638  0.08919436  0.51914312    -0.55800
C22         C  0.53835702  0.01982543  0.43977851     0.77960
O23         O  0.64498470  0.05674349  0.46695863    -0.58180
O24         O  0.57600114  0.01432981  0.03053133    -0.56630
O25         O  0.57948802  0.11468332  0.44004116    -0.56620
O26         O  0.52466016  0.04678913  0.45720807    -0.55790
O27         O  0.44724034  0.44759950  0.08744799    -0.57000
C28         C  0.45196744  0.00854840  0.18661604     0.75630
O29         O  0.55067877  0.42583236  0.15531279    -0.58160
C30         C  0.44928407  0.41369201  0.08898012     0.75600
C31         C  0.53923656  0.00651437  0.08778028     0.78000
Cd32       Cd  0.49468551  0.46048225  0.13842113     1.37460
O33         O  0.43867593  0.49502619  0.15535519    -0.56990
O34         O  0.51940758  0.01968981  0.11491081    -0.55800
C35         C  0.53755361  0.41304325  0.18690241     0.77960
O36         O  0.54059432  0.47258095  0.08589884    -0.58180
O37         O  0.48384595  0.99764049  0.19740691    -0.56630
O38         O  0.47030408  0.40087199  0.11521563    -0.56620
O39         O  0.50593446  0.42453282  0.19787846    -0.55790
O40         O  0.05412078  0.35728343  0.07323845    -0.57000
C41         C  0.05457906  0.28721050  0.47402288     0.75630
O42         O  0.07947428  0.40425229  0.46094805    -0.58160
C43         C  0.05851485  0.39115153  0.07554595     0.75600
C44         C  0.16360925  0.34501284  0.50416144     0.78000
Cd45       Cd  0.08360327  0.35282618  0.00639441     1.37460
O46         O  0.04513385  0.29726337  0.50831285    -0.56990
O47         O  0.14489633  0.33014065  0.03137361    -0.55800
C48         C  0.04440082  0.40217705  0.45689170     0.77960
O49         O  0.14505167  0.36345594  0.47991069    -0.58180
O50         O  0.07938035  0.30554459  0.45685945    -0.56630
O51         O  0.07808603  0.40557422  0.04904585    -0.56620
O52         O  0.02891899  0.37492385  0.47194738    -0.55790
O53         O  0.44415668  0.29725510  0.49198463    -0.57000
C54         C  0.43069183  0.39099985  0.05942813     0.75630
O55         O  0.40985042  0.40320026  0.44453059    -0.58160
C56         C  0.43328730  0.28671467  0.45832665     0.75600
C57         C  0.32573242  0.34285820  0.49752047     0.78000
Cd58       Cd  0.40531807  0.35214385  0.49125688     1.37460
O59         O  0.43594894  0.35724370  0.05703062    -0.56990
O60         O  0.34761609  0.32912568  0.52265327    -0.55800
C61         C  0.44500917  0.40049687  0.44066588     0.77960
O62         O  0.34111820  0.36037112  0.46998911    -0.58180
O63         O  0.41078075  0.40516398  0.03300697    -0.56630
O64         O  0.40731144  0.30438192  0.44219336    -0.56620
O65         O  0.45995888  0.37352047  0.45667194    -0.55790
O66         O  0.94563701  0.47197383  0.10151633    -0.57000
C67         C  0.94980393  0.41255291  0.20261510     0.75630
O68         O  0.04038688  0.44760582  0.10309514    -0.58160
C69         C  0.94633990  0.00592605  0.10349894     0.75600
C70         C  0.03455115  0.00836095  0.20246768     0.78000
Cd71       Cd  0.99227625  0.46015782  0.15378332     1.37470
O72         O  0.93722326  0.42407583  0.17020184    -0.56990
O73         O  0.00301944  0.99673858  0.21345820    -0.55800
C74         C  0.03916457  0.41366662  0.10487412     0.77960
O75         O  0.04758486  0.49567655  0.17068370    -0.58180
O76         O  0.98077365  0.42519433  0.21412540    -0.56630
O77         O  0.96630937  0.01928213  0.13043495    -0.56620
O78         O  0.01814546  0.40064516  0.13099438    -0.55790
O79         O  0.54067357  0.22256268  0.33571998    -0.57000
C80         C  0.53597666  0.16252003  0.43606741     0.75630
O81         O  0.43819699  0.24456731  0.40574239    -0.58160
C82         C  0.53889815  0.25649232  0.33723251     0.75600
C83         C  0.44818919  0.16413232  0.33747220     0.78000
Cd84       Cd  0.49389157  0.21027919  0.38737348     1.37470
O85         O  0.54940470  0.17520600  0.40456628    -0.56990
O86         O  0.46982803  0.15099753  0.36295130    -0.55800
C87         C  0.45200818  0.25766170  0.43697762     0.77960
O88         O  0.44573110  0.19804567  0.33684535    -0.58180
O89         O  0.50430840  0.17408933  0.44674332    -0.56630
O90         O  0.51826529  0.26965220  0.36369872    -0.56620
O91         O  0.48412402  0.24675551  0.44693397    -0.55790
O92         O  0.05347535  0.10760975  0.32231735    -0.57000
C93         C  0.05351361  0.03764294  0.22331451     0.75630
O94         O  0.07794731  0.15534025  0.21083076    -0.58160
C95         C  0.05812712  0.14144391  0.32476626     0.75600
C96         C  0.16259424  0.09395739  0.25550121     0.78000
Cd97       Cd  0.08273319  0.10315550  0.25553879     1.37460
O98         O  0.04369730  0.04803410  0.25737804    -0.56990
O99         O  0.14289731  0.08078999  0.28292462    -0.55800
C100        C  0.04296619  0.15222547  0.20601037     0.77960
O101        O  0.14506176  0.11124531  0.22931121    -0.58180
O102        O  0.07878582  0.05557138  0.20638057    -0.56630
O103        O  0.07749127  0.15592371  0.29811761    -0.56620
O104        O  0.02814336  0.12449731  0.22056477    -0.55790
O105        O  0.43474199  0.10812113  0.30472366    -0.57000
C106        C  0.43293994  0.03798055  0.20709498     0.75630
O107        O  0.34028576  0.11129607  0.21592480    -0.58160
C108        C  0.42939449  0.14181102  0.30771463     0.75600
C109        C  0.44231470  0.15373913  0.18919634     0.78000
Cd110      Cd  0.40395944  0.10368718  0.23896534     1.37460
O111        O  0.44320210  0.04896007  0.24077478    -0.56990
O112        O  0.45799433  0.12648344  0.20399622    -0.55800
C113        C  0.32421486  0.09436717  0.24334197     0.77960
O114        O  0.40719782  0.15552587  0.19336036    -0.58180
O115        O  0.40726997  0.05548037  0.19022537    -0.56630
O116        O  0.40922997  0.15623933  0.28168775    -0.56620
O117        O  0.34541596  0.08142114  0.26965412    -0.55790
O118        O  0.93253098  0.31264859  0.32350784    -0.57000
C119        C  0.93126728  0.38322670  0.22356281     0.75630
O120        O  0.91384056  0.26778672  0.20761771    -0.58160
C121        C  0.92878103  0.27866616  0.32495160     0.75600
C122        C  0.82453206  0.32180975  0.25628344     0.78000
Cd123      Cd  0.90474911  0.31708884  0.25593584     1.37460
O124        O  0.94054069  0.37407685  0.25815726    -0.56990
O125        O  0.84381813  0.33973194  0.28078773    -0.55800
C126        C  0.94911290  0.27111867  0.20690527     0.77960
O127        O  0.84260132  0.30220487  0.23238901    -0.58180
O128        O  0.90727003  0.36389474  0.20620056    -0.56630
O129        O  0.91057451  0.26409188  0.29736142    -0.56620
O130        O  0.96231659  0.29768562  0.22547010    -0.55790
O131        O  0.54603134  0.37330324  0.24134175    -0.57000
C132        C  0.55739374  0.27880482  0.30745813     0.75630
O133        O  0.57640424  0.26768412  0.19015831    -0.58160
C134        C  0.55622208  0.38356571  0.20746004     0.75600
C135        C  0.66275765  0.32078713  0.24502137     0.78000
Cd136      Cd  0.58273224  0.31705485  0.23907484     1.37470
O137        O  0.55307059  0.31268832  0.30550689    -0.56990
O138        O  0.64219616  0.33785780  0.26909181    -0.55800
C139        C  0.54104784  0.26924589  0.18930045     0.77960
O140        O  0.64606496  0.30361453  0.21802543    -0.58180
O141        O  0.57631776  0.26419479  0.28044827    -0.56630
O142        O  0.58118388  0.36515677  0.19040474    -0.56620
O143        O  0.52638624  0.29536109  0.20754124    -0.55790
O144        O  0.04059596  0.19779370  0.35296773    -0.57000
C145        C  0.03565811  0.25788470  0.45320115     0.75630
O146        O  0.94682313  0.22229135  0.35212042    -0.58160
C147        C  0.03931196  0.16384746  0.35453884     0.75600
C148        C  0.95061684  0.16176415  0.45242369     0.78000
Cd149      Cd  0.99314973  0.20998147  0.40440542     1.37470
O150        O  0.04851787  0.24543357  0.42122925    -0.56990
O151        O  0.98183915  0.17380344  0.46395873    -0.55800
C152        C  0.94735325  0.25621530  0.35466448     0.77960
O153        O  0.93784237  0.17421935  0.42051175    -0.58180
O154        O  0.00427845  0.24603781  0.46438853    -0.56630
O155        O  0.01872071  0.15069973  0.38095278    -0.56620
O156        O  0.96699389  0.26930957  0.38201819    -0.55790
C157        C  0.76479720  0.29245576  0.23919098    -0.19490
C158        C  0.78303433  0.32253598  0.25529982    -0.06060
C159        C  0.76134914  0.35207147  0.26863850     0.14810
C160        C  0.72218006  0.35064319  0.26512865    -0.19540
C161        C  0.70411322  0.32069910  0.24832929    -0.06060
C162        C  0.72586419  0.29101447  0.23559311     0.14800
C163        C  0.70849228  0.25711298  0.21918487    -0.22890
H164        H  0.78120774  0.26959841  0.22938871     0.16090
H165        H  0.70556816  0.37334950  0.27500074     0.16120
C166        C  0.77909247  0.38555203  0.28544185    -0.22840
H167        H  0.72969468  0.23592133  0.21336573     0.06330
H168        H  0.69440998  0.26289202  0.19082179     0.09560
H169        H  0.68806895  0.24605081  0.24055366     0.09560
H170        H  0.79878179  0.39722233  0.26370463     0.09540
H171        H  0.79423742  0.37896641  0.31297986     0.09540
H172        H  0.75795111  0.40643507  0.29270091     0.06310
C173        C  0.50354780  0.17661740  0.16678001    -0.19490
C174        C  0.46523977  0.18328488  0.17240302    -0.06060
C175        C  0.45228687  0.21925837  0.17054182     0.14810
C176        C  0.47846612  0.24736318  0.16991466    -0.19540
C177        C  0.51703378  0.24050743  0.17230477    -0.06060
C178        C  0.52976103  0.20470390  0.16725908     0.14800
C179        C  0.57069356  0.19527526  0.16571214    -0.22890
H180        H  0.51349742  0.14904945  0.16618929     0.16090
H181        H  0.46857240  0.27490920  0.17178396     0.16120
C182        C  0.41137570  0.22871502  0.17252865    -0.22840
H183        H  0.57512646  0.16615436  0.15978867     0.06330
H184        H  0.58422862  0.20152570  0.19431269     0.09560
H185        H  0.58445069  0.21055245  0.14172810     0.09560
H186        H  0.39974919  0.22129047  0.20165546     0.09540
H187        H  0.39601805  0.21445277  0.14874888     0.09540
H188        H  0.40664655  0.25804580  0.16863395     0.06310
C189        C  0.03576054  0.21618100  0.18786681    -0.19490
C190        C  0.01994195  0.18163679  0.18928928    -0.06060
C191        C  0.98099305  0.17791772  0.18288041     0.14810
C192        C  0.95847111  0.20881248  0.18308020    -0.19540
C193        C  0.97386279  0.24301006  0.19000197    -0.06060
C194        C  0.01323376  0.24705740  0.18848683     0.14800
C195        C  0.03203305  0.28340918  0.18960864    -0.22890
H196        H  0.06576604  0.21925164  0.19053552     0.16090
H197        H  0.92838960  0.20568107  0.18195302     0.16120
C198        C  0.96247303  0.14171095  0.17779054    -0.22840
H199        H  0.06238560  0.28123467  0.18324094     0.06330
H200        H  0.02936804  0.29582465  0.21919261     0.09560
H201        H  0.01952207  0.30125562  0.16702060     0.09560
H202        H  0.96225710  0.12674090  0.20594773     0.09540
H203        H  0.97732896  0.12589921  0.15484122     0.09540
H204        H  0.93291846  0.14453195  0.16832279     0.06310
C205        C  0.22080171  0.09668620  0.21656428    -0.19490
C206        C  0.20390307  0.08995368  0.25309496    -0.06060
C207        C  0.22689501  0.08129962  0.28566390     0.14810
C208        C  0.26598928  0.08188839  0.28119774    -0.19540
C209        C  0.28282928  0.09081991  0.24511602    -0.06060
C210        C  0.25967160  0.09713883  0.21199658     0.14800
C211        C  0.27522483  0.10415317  0.17145621    -0.22890
H212        H  0.20339646  0.10222804  0.19121925     0.16090
H213        H  0.28350655  0.07636267  0.30645866     0.16120
C214        C  0.21080523  0.07248091  0.32544888    -0.22840
H215        H  0.25285467  0.10582628  0.14888338     0.06330
H216        H  0.29424431  0.08190540  0.16271146     0.09560
H217        H  0.29036972  0.13020448  0.17105215     0.09560
H218        H  0.19312652  0.04799994  0.32326876     0.09540
H219        H  0.19389125  0.09546281  0.33642129     0.09540
H220        H  0.23298248  0.06704847  0.34750435     0.06310
C221        C  0.26381633  0.35045016  0.46642943    -0.19490
C222        C  0.28429162  0.33951858  0.49952432    -0.06060
C223        C  0.26459972  0.32740021  0.03319885     0.14810
C224        C  0.22527976  0.32869711  0.03343648    -0.19540
C225        C  0.20497141  0.34165291  0.50101055    -0.06060
C226        C  0.22473439  0.35161573  0.46651273     0.14800
C227        C  0.20535697  0.36337021  0.42922847    -0.22890
H228        H  0.27854878  0.35877342  0.44015853     0.16090
H229        H  0.21036034  0.32033841  0.05957975     0.16120
C230        C  0.28443812  0.31379318  0.06932919    -0.22840
H231        H  0.22537152  0.36775123  0.40474248     0.06330
H232        H  0.19059296  0.38925698  0.43417239     0.09560
H233        H  0.18533459  0.34230363  0.41950870     0.09560
H234        H  0.30258918  0.33526516  0.08168394     0.09540
H235        H  0.30149632  0.28981387  0.06165436     0.09540
H236        H  0.26451103  0.30565207  0.09270768     0.06310
C237        C  0.52957898  0.45691789  0.41739815    -0.19490
C238        C  0.51398878  0.49120850  0.42311616    -0.06060
C239        C  0.47460825  0.49503737  0.42077096     0.14810
C240        C  0.45217602  0.46406416  0.42072537    -0.19540
C241        C  0.46808126  0.42963305  0.42335893    -0.06060
C242        C  0.50714001  0.42594309  0.41761011     0.14800
C243        C  0.52582932  0.38970800  0.41359713    -0.22890
H244        H  0.55968450  0.45387462  0.41686481     0.16090
H245        H  0.42212781  0.46706800  0.42287096     0.16120
C246        C  0.45565916  0.03131979  0.42039975    -0.22840
H247        H  0.55546869  0.39244958  0.40441458     0.06330
H248        H  0.51126355  0.37340104  0.39084346     0.09560
H249        H  0.52581365  0.37528495  0.44209275     0.09560
H250        H  0.46849127  0.04862483  0.39751521     0.09540
H251        H  0.45775969  0.04450351  0.44963740     0.09540
H252        H  0.42543189  0.02885299  0.41349673     0.06310
C253        C  0.00814947  0.49544813  0.43645848    -0.19490
C254        C  0.96962159  0.48852821  0.43898670    -0.06060
C255        C  0.95691829  0.45264890  0.43438883     0.14810
C256        C  0.98315392  0.42462465  0.43428658    -0.19540
C257        C  0.02141294  0.43145702  0.43983736    -0.06060
C258        C  0.03434602  0.46741555  0.43749742     0.14800
C259        C  0.07524087  0.47699138  0.43941817    -0.22890
H260        H  0.01801522  0.02302250  0.43791611     0.16090
H261        H  0.97326926  0.39702907  0.43403537     0.16120
C262        C  0.91601387  0.44307592  0.43280685    -0.22840
H263        H  0.07991305  0.50627955  0.43510355     0.06330
H264        H  0.09066130  0.46248282  0.41587319     0.09560
H265        H  0.08685458  0.46996646  0.96867940     0.09560
H266        H  0.90219986  0.45828516  0.40879989     0.09540
H267        H  0.90244277  0.44923637  0.46140029     0.09540
H268        H  0.91169396  0.41393764  0.42688509     0.06310
C269        C  0.76201881  0.09152036  0.02747001    -0.19490
C270        C  0.78211908  0.07383215  0.49754812    -0.06060
C271        C  0.76202034  0.05849499  0.46557211     0.14810
C272        C  0.72293271  0.06006265  0.46541241    -0.19540
C273        C  0.70270697  0.07648266  0.49598147    -0.06060
C274        C  0.72272821  0.09316276  0.02715861     0.14800
C275        C  0.70332834  0.11248377  0.06046355    -0.22890
H276        H  0.77710899  0.10379337  0.05167883     0.16090
H277        H  0.70800650  0.04779681  0.44109714     0.16120
C278        C  0.78095588  0.04024445  0.43116833    -0.22840
H279        H  0.72352122  0.12407759  0.08185330     0.06330
H280        H  0.68520444  0.09342802  0.07676039     0.09560
H281        H  0.68634971  0.13502231  0.04869102     0.09560
H282        H  0.79642839  0.01612462  0.44136734     0.09540
H283        H  0.80025740  0.05936665  0.41651292     0.09540
H284        H  0.76062477  0.03095019  0.40862347     0.06310
O285        O  0.93149918  0.06203982  0.57168411    -0.57000
C286        C  0.93188224  0.13217196  0.97273037     0.75630
O287        O  0.91039037  0.01499316  0.95775166    -0.58160
C288        C  0.92762437  0.02810345  0.57360433     0.75600
C289        C  0.82362590  0.07161685  0.00074165     0.78000
Cd290      Cd  0.90382622  0.06594881  0.50397751     1.37470
O291        O  0.94113877  0.12218885  0.00702490    -0.56990
O292        O  0.84176887  0.08708375  0.52812287    -0.55800
C293        C  0.94557941  0.01744896  0.95540601     0.77960
O294        O  0.84293103  0.05385649  0.97637975    -0.58230
O295        O  0.90755874  0.11350226  0.95507098    -0.56630
O296        O  0.90919129  0.01333020  0.54630924    -0.56620
O297        O  0.96008706  0.04471777  0.97168968    -0.55790
O298        O  0.54414903  0.12310804  0.99085171    -0.57000
C299        C  0.55721137  0.02886748  0.55771680     0.75630
O300        O  0.57363967  0.01666721  0.94152017    -0.58160
C301        C  0.55445758  0.13314725  0.95690303     0.75600
C302        C  0.66112761  0.07435230  0.99410667     0.78000
Cd303      Cd  0.58122888  0.06715541  0.98901925     1.37460
O304        O  0.55245572  0.06270369  0.55569835    -0.56990
O305        O  0.63983639  0.08919436  0.01914313    -0.55800
C306        C  0.53835704  0.01982542  0.93977852     0.77960
O307        O  0.64498471  0.05674350  0.96695863    -0.58180
O308        O  0.57600113  0.01432981  0.53053132    -0.56630
O309        O  0.57948803  0.11468332  0.94004116    -0.56620
O310        O  0.52466018  0.04678912  0.95720806    -0.55790
O311        O  0.44724032  0.44759950  0.58744799    -0.57000
C312        C  0.45196743  0.00854840  0.68661603     0.75630
O313        O  0.55067876  0.42583236  0.65531280    -0.58160
C314        C  0.44928406  0.41369201  0.58898012     0.75600
C315        C  0.53923655  0.00651437  0.58778028     0.78000
Cd316      Cd  0.49468550  0.46048224  0.63842113     1.37460
O317        O  0.43867593  0.49502619  0.65535518    -0.56990
O318        O  0.51940757  0.01968981  0.61491081    -0.55800
C319        C  0.53755360  0.41304325  0.68690241     0.77960
O320        O  0.54059431  0.47258094  0.58589884    -0.58180
O321        O  0.48384595  0.99764050  0.69740690    -0.56630
O322        O  0.47030408  0.40087199  0.61521562    -0.56620
O323        O  0.50593445  0.42453281  0.69787845    -0.55790
O324        O  0.05412076  0.35728342  0.57323845    -0.57000
C325        C  0.05457907  0.28721051  0.97402287     0.75630
O326        O  0.07947430  0.40425230  0.96094805    -0.58160
C327        C  0.05851484  0.39115152  0.57554596     0.75600
C328        C  0.16360927  0.34501284  0.00416144     0.78000
Cd329      Cd  0.08360326  0.35282618  0.50639442     1.37460
O330        O  0.04513387  0.29726338  0.00831285    -0.56990
O331        O  0.14489632  0.33014064  0.53137362    -0.55800
C332        C  0.04440084  0.40217706  0.95689169     0.77960
O333        O  0.14505169  0.36345593  0.97991068    -0.58180
O334        O  0.07938036  0.30554459  0.95685945    -0.56630
O335        O  0.07808601  0.40557421  0.54904586    -0.56620
O336        O  0.02891900  0.37492386  0.97194737    -0.55790
O337        O  0.44415669  0.29725509  0.99198464    -0.57000
C338        C  0.43069182  0.39099984  0.55942813     0.75630
O339        O  0.40985045  0.40320025  0.94453058    -0.58160
C340        C  0.43328731  0.28671467  0.95832666     0.75600
C341        C  0.32573244  0.34285820  0.99752047     0.78000
Cd342      Cd  0.40531808  0.35214384  0.99125688     1.37460
O343        O  0.43594894  0.35724370  0.55703061    -0.56990
O344        O  0.34761610  0.32912568  0.02265327    -0.55800
C345        C  0.44500921  0.40049686  0.94066589     0.77960
O346        O  0.34111822  0.36037112  0.96998912    -0.58180
O347        O  0.41078073  0.40516398  0.53300697    -0.56630
O348        O  0.40731145  0.30438192  0.94219336    -0.56620
O349        O  0.45995890  0.37352045  0.95667196    -0.55790
O350        O  0.94563700  0.47197382  0.60151632    -0.57000
C351        C  0.94980391  0.41255292  0.70261511     0.75630
O352        O  0.04038687  0.44760582  0.60309515    -0.58160
C353        C  0.94633989  0.00592606  0.60349894     0.75600
C354        C  0.03455115  0.00836096  0.70246768     0.78000
Cd355      Cd  0.99227623  0.46015782  0.65378333     1.37470
O356        O  0.93722324  0.42407583  0.67020185    -0.56990
O357        O  0.00301943  0.99673860  0.71345820    -0.55800
C358        C  0.03916455  0.41366662  0.60487412     0.77960
O359        O  0.04758484  0.49567656  0.67068369    -0.58180
O360        O  0.98077363  0.42519434  0.71412541    -0.56630
O361        O  0.96630936  0.01928215  0.63043495    -0.56620
O362        O  0.01814544  0.40064516  0.63099439    -0.55790
O363        O  0.54067356  0.22256268  0.83571998    -0.57000
C364        C  0.53597666  0.16252002  0.93606741     0.75630
O365        O  0.43819699  0.24456730  0.90574240    -0.58160
C366        C  0.53889814  0.25649232  0.83723251     0.75600
C367        C  0.44818919  0.16413231  0.83747219     0.78000
Cd368      Cd  0.49389157  0.21027918  0.88737348     1.37470
O369        O  0.54940470  0.17520599  0.90456628    -0.56990
O370        O  0.46982803  0.15099752  0.86295130    -0.55800
C371        C  0.45200819  0.25766169  0.93697762     0.77960
O372        O  0.44573110  0.19804566  0.83684535    -0.58180
O373        O  0.50430840  0.17408932  0.94674332    -0.56630
O374        O  0.51826529  0.26965219  0.86369873    -0.56620
O375        O  0.48412402  0.24675549  0.94693398    -0.55790
O376        O  0.05347535  0.10760975  0.82231735    -0.57000
C377        C  0.05351361  0.03764295  0.72331451     0.75630
O378        O  0.07794732  0.15534027  0.71083076    -0.58160
C379        C  0.05812713  0.14144392  0.82476626     0.75600
C380        C  0.16259425  0.09395739  0.75550121     0.78000
Cd381      Cd  0.08273320  0.10315551  0.75553879     1.37460
O382        O  0.04369730  0.04803411  0.75737804    -0.56990
O383        O  0.14289731  0.08079000  0.78292463    -0.55800
C384        C  0.04296620  0.15222549  0.70601037     0.77960
O385        O  0.14506177  0.11124530  0.72931121    -0.58180
O386        O  0.07878581  0.05557139  0.70638056    -0.56630
O387        O  0.07749127  0.15592372  0.79811761    -0.56620
O388        O  0.02814337  0.12449733  0.72056476    -0.55790
O389        O  0.43474199  0.10812113  0.80472366    -0.57000
C390        C  0.43293993  0.03798055  0.70709498     0.75630
O391        O  0.34028575  0.11129605  0.71592480    -0.58160
C392        C  0.42939449  0.14181102  0.80771463     0.75600
C393        C  0.44231469  0.15373914  0.68919633     0.78000
Cd394      Cd  0.40395944  0.10368717  0.73896534     1.37460
O395        O  0.44320210  0.04896008  0.74077478    -0.56990
O396        O  0.45799432  0.12648344  0.70399621    -0.55800
C397        C  0.32421486  0.09436716  0.74334198     0.77960
O398        O  0.40719780  0.15552588  0.69336036    -0.58180
O399        O  0.40726996  0.05548037  0.69022538    -0.56630
O400        O  0.40922997  0.15623933  0.78168775    -0.56620
O401        O  0.34541597  0.08142114  0.76965413    -0.55790
O402        O  0.93253097  0.31264860  0.82350787    -0.57000
C403        C  0.93126727  0.38322671  0.72356283     0.75630
O404        O  0.91384056  0.26778673  0.70761772    -0.58160
C405        C  0.92878103  0.27866617  0.82495162     0.75600
C406        C  0.82453205  0.32180974  0.75628346     0.78000
Cd407      Cd  0.90474910  0.31708884  0.75593586     1.37460
O408        O  0.94054068  0.37407686  0.75815727    -0.56990
O409        O  0.84381812  0.33973194  0.78078775    -0.55800
C410        C  0.94911291  0.27111869  0.70690530     0.77960
O411        O  0.84260132  0.30220487  0.73238903    -0.58180
O412        O  0.90727002  0.36389474  0.70620057    -0.56630
O413        O  0.91057451  0.26409188  0.79736144    -0.56620
O414        O  0.96231658  0.29768564  0.72547013    -0.55790
O415        O  0.54603133  0.37330323  0.74134175    -0.57000
C416        C  0.55739373  0.27880481  0.80745813     0.75630
O417        O  0.57640423  0.26768412  0.69015830    -0.58160
C418        C  0.55622207  0.38356571  0.70746004     0.75600
C419        C  0.66275764  0.32078713  0.74502138     0.78000
Cd420      Cd  0.58273223  0.31705485  0.73907484     1.37470
O421        O  0.55307059  0.31268831  0.80550689    -0.56990
O422        O  0.64219615  0.33785780  0.76909181    -0.55800
C423        C  0.54104782  0.26924589  0.68930045     0.77960
O424        O  0.64606495  0.30361452  0.71802543    -0.58180
O425        O  0.57631775  0.26419478  0.78044827    -0.56630
O426        O  0.58118387  0.36515677  0.69040474    -0.56620
O427        O  0.52638623  0.29536109  0.70754124    -0.55790
O428        O  0.04059596  0.19779370  0.85296773    -0.57000
C429        C  0.03565811  0.25788470  0.95320115     0.75630
O430        O  0.94682314  0.22229136  0.85212043    -0.58160
C431        C  0.03931196  0.16384746  0.85453884     0.75600
C432        C  0.95061685  0.16176414  0.95242370     0.78000
Cd433      Cd  0.99314973  0.20998147  0.90440543     1.37470
O434        O  0.04851788  0.24543357  0.92122925    -0.56990
O435        O  0.98183916  0.17380343  0.96395874    -0.55800
C436        C  0.94735324  0.25621530  0.85466450     0.77960
O437        O  0.93784238  0.17421935  0.92051175    -0.58180
O438        O  0.00427846  0.24603782  0.96438853    -0.56630
O439        O  0.01872071  0.15069973  0.88095279    -0.56620
O440        O  0.96699388  0.26930957  0.88201821    -0.55790
C441        C  0.76479719  0.29245575  0.73919101    -0.19490
C442        C  0.78303432  0.32253597  0.75529984    -0.06060
C443        C  0.76134913  0.35207147  0.76863850     0.14810
C444        C  0.72218005  0.35064319  0.76512865    -0.19540
C445        C  0.70411321  0.32069910  0.74832930    -0.06060
C446        C  0.72586418  0.29101447  0.73559313     0.14800
C447        C  0.70849228  0.25711297  0.71918490    -0.22890
H448        H  0.78120774  0.26959840  0.72938875     0.16090
H449        H  0.70556815  0.37334950  0.77500074     0.16120
C450        C  0.77909246  0.38555203  0.78544185    -0.22840
H451        H  0.72969467  0.23592132  0.71336577     0.06330
H452        H  0.69440997  0.26289201  0.69082182     0.09560
H453        H  0.68806894  0.24605080  0.74055369     0.09560
H454        H  0.79878178  0.39722233  0.76370463     0.09540
H455        H  0.79423740  0.37896643  0.81297986     0.09540
H456        H  0.75795110  0.40643508  0.79270091     0.06310
C457        C  0.50354779  0.17661740  0.66678000    -0.19490
C458        C  0.46523975  0.18328488  0.67240301    -0.06060
C459        C  0.45228685  0.21925837  0.67054182     0.14810
C460        C  0.47846611  0.24736319  0.66991466    -0.19540
C461        C  0.51703377  0.24050743  0.67230476    -0.06060
C462        C  0.52976102  0.20470390  0.66725906     0.14800
C463        C  0.57069354  0.19527526  0.66571212    -0.22890
H464        H  0.51349741  0.14904945  0.66618927     0.16090
H465        H  0.46857238  0.27490921  0.67178396     0.16120
C466        C  0.41137569  0.22871503  0.67252866    -0.22840
H467        H  0.57512644  0.16615437  0.65978865     0.06330
H468        H  0.58422861  0.20152570  0.69431267     0.09560
H469        H  0.58445067  0.21055245  0.64172808     0.09560
H470        H  0.39974918  0.22129047  0.70165546     0.09540
H471        H  0.39601803  0.21445277  0.64874888     0.09540
H472        H  0.40664653  0.25804580  0.66863396     0.06310
C473        C  0.03576056  0.21618103  0.68786684    -0.19490
C474        C  0.01994197  0.18163682  0.68928929    -0.06060
C475        C  0.98099307  0.17791774  0.68288040     0.14810
C476        C  0.95847112  0.20881250  0.68308021    -0.19540
C477        C  0.97386280  0.24301008  0.69000199    -0.06060
C478        C  0.01323378  0.24705743  0.68848687     0.14800
C479        C  0.03203306  0.28340920  0.68960871    -0.22890
H480        H  0.06576606  0.21925167  0.69053556     0.16090
H481        H  0.92838962  0.20568110  0.68195301     0.16120
C482        C  0.96247306  0.14171098  0.67779051    -0.22840
H483        H  0.06238562  0.28123470  0.68324102     0.06330
H484        H  0.02936805  0.29582466  0.71919268     0.09560
H485        H  0.01952208  0.30125566  0.66702067     0.09560
H486        H  0.96225711  0.12674092  0.70594769     0.09540
H487        H  0.97732900  0.12589925  0.65484119     0.09540
H488        H  0.93291848  0.14453198  0.66832275     0.06310
C489        C  0.22080171  0.09668614  0.71656428    -0.19490
C490        C  0.20390307  0.08995367  0.75309497    -0.06060
C491        C  0.22689501  0.08129966  0.78566393     0.14810
C492        C  0.26598928  0.08188842  0.78119777    -0.19540
C493        C  0.28282928  0.09081990  0.74511603    -0.06060
C494        C  0.25967161  0.09713877  0.71199658     0.14800
C495        C  0.27522483  0.10415305  0.67145620    -0.22890
H496        H  0.20339646  0.10222794  0.69121923     0.16090
H497        H  0.28350655  0.07636274  0.80645870     0.16120
C498        C  0.21080523  0.07248101  0.82544892    -0.22840
H499        H  0.25285467  0.10582612  0.64888337     0.06330
H500        H  0.29424432  0.08190526  0.66271149     0.09560
H501        H  0.29036972  0.13020435  0.67105209     0.09560
H502        H  0.19312652  0.04800003  0.82326884     0.09540
H503        H  0.19389124  0.09546293  0.83642129     0.09540
H504        H  0.23298248  0.06704860  0.84750440     0.06310
C505        C  0.26381634  0.35045015  0.96642942    -0.19490
C506        C  0.28429164  0.33951859  0.99952432    -0.06060
C507        C  0.26459971  0.32740019  0.53319884     0.14810
C508        C  0.22527974  0.32869710  0.53343648    -0.19540
C509        C  0.20497143  0.34165291  0.00101055    -0.06060
C510        C  0.22473441  0.35161572  0.96651273     0.14800
C511        C  0.20535699  0.36337019  0.92922846    -0.22890
H512        H  0.27854880  0.35877340  0.94015852     0.16090
H513        H  0.21036033  0.32033839  0.55957974     0.16120
C514        C  0.28443811  0.31379315  0.56932918    -0.22840
H515        H  0.22537154  0.36775120  0.90474247     0.06330
H516        H  0.19059298  0.38925696  0.93417236     0.09560
H517        H  0.18533461  0.34230360  0.91950870     0.09560
H518        H  0.30258917  0.33526513  0.58168394     0.09540
H519        H  0.30149631  0.28981384  0.56165433     0.09540
H520        H  0.26451102  0.30565203  0.59270767     0.06310
C521        C  0.52957902  0.45691787  0.91739817    -0.19490
C522        C  0.51398882  0.49120848  0.92311616    -0.06060
C523        C  0.47460828  0.49503735  0.92077094     0.14810
C524        C  0.45217606  0.46406414  0.92072535    -0.19540
C525        C  0.46808130  0.42963303  0.92335893    -0.06060
C526        C  0.50714005  0.42594307  0.91761014     0.14800
C527        C  0.52582937  0.38970798  0.91359719    -0.22890
H528        H  0.55968454  0.45387460  0.91686485     0.16090
H529        H  0.42212785  0.46706797  0.92287093     0.16120
C530        C  0.45565918  0.03131978  0.92039974    -0.22840
H531        H  0.55546874  0.39244956  0.90441465     0.06330
H532        H  0.51126361  0.37340101  0.89084352     0.09560
H533        H  0.52581368  0.37528495  0.94209282     0.09560
H534        H  0.46849130  0.04862482  0.89751520     0.09540
H535        H  0.45775971  0.04450350  0.94963739     0.09540
H536        H  0.42543191  0.02885297  0.91349672     0.06310
C537        C  0.00814949  0.49544814  0.93645849    -0.19490
C538        C  0.96962161  0.48852822  0.93898670    -0.06060
C539        C  0.95691831  0.45264892  0.93438883     0.14810
C540        C  0.98315394  0.42462467  0.93428657    -0.19540
C541        C  0.02141296  0.43145703  0.93983736    -0.06060
C542        C  0.03434604  0.46741557  0.93749742     0.14800
C543        C  0.07524089  0.47699139  0.93941819    -0.22890
H544        H  0.01801521  0.02302247  0.93791608     0.16090
H545        H  0.97326928  0.39702908  0.93403536     0.16120
C546        C  0.91601389  0.44307594  0.93280684    -0.22840
H547        H  0.07991307  0.50627956  0.93510357     0.06330
H548        H  0.09066132  0.46248284  0.91587320     0.09560
H549        H  0.08685456  0.46996646  0.46867939     0.09560
H550        H  0.90219989  0.45828518  0.90879988     0.09540
H551        H  0.90244279  0.44923638  0.96140028     0.09540
H552        H  0.91169398  0.41393765  0.92688507     0.06310
C553        C  0.76201880  0.09152041  0.52746996    -0.19490
C554        C  0.78211909  0.07383217  0.99754812    -0.06060
C555        C  0.76202036  0.05849509  0.96557207     0.14810
C556        C  0.72293273  0.06006274  0.96541237    -0.19540
C557        C  0.70270698  0.07648268  0.99598147    -0.06060
C558        C  0.72272820  0.09316280  0.52715856     0.14800
C559        C  0.70332833  0.11248390  0.56046344    -0.22890
H560        H  0.77710898  0.10379347  0.55167875     0.16090
H561        H  0.70800652  0.04779696  0.94109706     0.16120
C562        C  0.78095589  0.04024464  0.93116823    -0.22840
H563        H  0.72352122  0.12407777  0.58185316     0.06330
H564        H  0.68520443  0.09342819  0.57676034     0.09560
H565        H  0.68634970  0.13502241  0.54869085     0.09560
H566        H  0.79642839  0.01612478  0.94136717     0.09540
H567        H  0.80025743  0.05936687  0.91651290     0.09540
H568        H  0.76062479  0.03095045  0.90862333     0.06310
O569        O  0.93149923  0.56203982  0.07168411    -0.57000
C570        C  0.93188225  0.63217197  0.47273037     0.75630
O571        O  0.91039037  0.51499317  0.45775166    -0.58160
C572        C  0.92762440  0.52810345  0.07360434     0.75600
C573        C  0.82362590  0.57161686  0.50074165     0.78000
Cd574      Cd  0.90382624  0.56594881  0.00397751     1.37470
O575        O  0.94113878  0.62218886  0.50702490    -0.56990
O576        O  0.84176890  0.58708376  0.02812288    -0.55800
C577        C  0.94557941  0.51744897  0.45540601     0.77960
O578        O  0.84293103  0.55385650  0.47637976    -0.58230
O579        O  0.90755874  0.61350227  0.45507098    -0.56630
O580        O  0.90919131  0.51333020  0.04630925    -0.56620
O581        O  0.96008706  0.54471777  0.47168969    -0.55790
O582        O  0.54414904  0.62310805  0.49085172    -0.57000
C583        C  0.55721139  0.52886749  0.05771681     0.75630
O584        O  0.57363967  0.51666722  0.44152017    -0.58160
C585        C  0.55445759  0.63314726  0.45690304     0.75600
C586        C  0.66112761  0.57435231  0.49410667     0.78000
Cd587      Cd  0.58122889  0.56715541  0.48901925     1.37460
O588        O  0.55245574  0.56270370  0.05569835    -0.56990
O589        O  0.63983639  0.58919437  0.51914314    -0.55800
C590        C  0.53835704  0.51982543  0.43977852     0.77960
O591        O  0.64498472  0.55674350  0.46695864    -0.58180
O592        O  0.57600115  0.51432982  0.03053134    -0.56630
O593        O  0.57948804  0.61468332  0.44004117    -0.56620
O594        O  0.52466019  0.54678913  0.45720807    -0.55790
O595        O  0.44724032  0.94759949  0.08744800    -0.57000
C596        C  0.45196744  0.50854841  0.18661604     0.75630
O597        O  0.55067877  0.92583237  0.15531281    -0.58160
C598        C  0.44928407  0.91369201  0.08898013     0.75600
C599        C  0.53923656  0.50651437  0.08778028     0.78000
Cd600      Cd  0.49468551  0.96048224  0.13842114     1.37460
O601        O  0.43867593  0.99502619  0.15535518    -0.56990
O602        O  0.51940758  0.51968982  0.11491081    -0.55800
C603        C  0.53755361  0.91304326  0.18690242     0.77960
O604        O  0.54059431  0.97258094  0.08589884    -0.58180
O605        O  0.48384596  0.49764050  0.19740690    -0.56630
O606        O  0.47030409  0.90087198  0.11521563    -0.56620
O607        O  0.50593445  0.92453282  0.19787846    -0.55790
O608        O  0.05412077  0.85728342  0.07323846    -0.57000
C609        C  0.05457906  0.78721052  0.47402288     0.75630
O610        O  0.07947429  0.90425231  0.46094807    -0.58160
C611        C  0.05851484  0.89115153  0.07554596     0.75600
C612        C  0.16360926  0.84501283  0.50416146     0.78000
Cd613      Cd  0.08360327  0.85282618  0.00639443     1.37460
O614        O  0.04513385  0.79726339  0.50831285    -0.56990
O615        O  0.14489632  0.83014064  0.03137363    -0.55800
C616        C  0.04440084  0.90217707  0.45689170     0.77960
O617        O  0.14505168  0.86345593  0.47991069    -0.58180
O618        O  0.07938036  0.80554459  0.45685946    -0.56630
O619        O  0.07808602  0.90557421  0.04904586    -0.56620
O620        O  0.02891900  0.87492387  0.47194737    -0.55790
O621        O  0.44415669  0.79725509  0.49198464    -0.57000
C622        C  0.43069182  0.89099984  0.05942814     0.75630
O623        O  0.40985041  0.90320025  0.44453060    -0.58160
C624        C  0.43328730  0.78671467  0.45832667     0.75600
C625        C  0.32573242  0.84285818  0.49752049     0.78000
Cd626      Cd  0.40531806  0.85214384  0.49125688     1.37460
O627        O  0.43594895  0.85724369  0.05703062    -0.56990
O628        O  0.34761609  0.82912567  0.52265329    -0.55800
C629        C  0.44500916  0.90049687  0.44066588     0.77960
O630        O  0.34111820  0.86037110  0.46998912    -0.58180
O631        O  0.41078073  0.90516397  0.03300698    -0.56630
O632        O  0.40731143  0.80438191  0.44219337    -0.56620
O633        O  0.45995887  0.87352046  0.45667194    -0.55790
O634        O  0.94563700  0.97197382  0.10151632    -0.57000
C635        C  0.94980392  0.91255290  0.20261510     0.75630
O636        O  0.04038687  0.94760582  0.10309515    -0.58160
C637        C  0.94633992  0.50592606  0.10349894     0.75600
C638        C  0.03455117  0.50836095  0.20246769     0.78000
Cd639      Cd  0.99227623  0.96015781  0.15378333     1.37470
O640        O  0.93722324  0.92407582  0.17020184    -0.56990
O641        O  0.00301945  0.49673859  0.21345820    -0.55800
C642        C  0.03916455  0.91366662  0.10487412     0.77960
O643        O  0.04758484  0.99567655  0.17068370    -0.58180
O644        O  0.98077364  0.92519433  0.21412540    -0.56630
O645        O  0.96630940  0.51928214  0.13043495    -0.56620
O646        O  0.01814544  0.90064516  0.13099439    -0.55790
O647        O  0.54067357  0.72256269  0.33571999    -0.57000
C648        C  0.53597667  0.66252003  0.43606742     0.75630
O649        O  0.43819699  0.74456730  0.40574241    -0.58160
C650        C  0.53889815  0.75649232  0.33723252     0.75600
C651        C  0.44818920  0.66413232  0.33747221     0.78000
Cd652      Cd  0.49389158  0.71027919  0.38737349     1.37470
O653        O  0.54940470  0.67520599  0.40456629    -0.56990
O654        O  0.46982803  0.65099753  0.36295131    -0.55800
C655        C  0.45200819  0.75766170  0.43697763     0.77960
O656        O  0.44573111  0.69804567  0.33684536    -0.58180
O657        O  0.50430841  0.67408933  0.44674333    -0.56630
O658        O  0.51826529  0.76965220  0.36369874    -0.56620
O659        O  0.48412402  0.74675550  0.44693399    -0.55790
O660        O  0.05347537  0.60760975  0.32231736    -0.57000
C661        C  0.05351363  0.53764294  0.22331452     0.75630
O662        O  0.07794730  0.65534025  0.21083075    -0.58160
C663        C  0.05812714  0.64144392  0.32476626     0.75600
C664        C  0.16259425  0.59395740  0.25550121     0.78000
Cd665      Cd  0.08273320  0.60315551  0.25553879     1.37460
O666        O  0.04369731  0.54803410  0.25737805    -0.56990
O667        O  0.14289731  0.58079000  0.28292462    -0.55800
C668        C  0.04296617  0.65222546  0.20601037     0.77960
O669        O  0.14506177  0.61124532  0.22931121    -0.58180
O670        O  0.07878583  0.55557138  0.20638058    -0.56630
O671        O  0.07749127  0.65592372  0.29811761    -0.56620
O672        O  0.02814335  0.62449730  0.22056478    -0.55790
O673        O  0.43474200  0.60812113  0.30472367    -0.57000
C674        C  0.43293994  0.53798055  0.20709499     0.75630
O675        O  0.34028577  0.61129607  0.21592481    -0.58160
C676        C  0.42939450  0.64181102  0.30771464     0.75600
C677        C  0.44231471  0.65373914  0.18919635     0.78000
Cd678      Cd  0.40395945  0.60368718  0.23896535     1.37460
O679        O  0.44320211  0.54896008  0.24077479    -0.56990
O680        O  0.45799434  0.62648345  0.20399623    -0.55800
C681        C  0.32421487  0.59436717  0.24334198     0.77960
O682        O  0.40719782  0.65552587  0.19336036    -0.58180
O683        O  0.40726997  0.55548037  0.19022538    -0.56630
O684        O  0.40922998  0.65623933  0.28168776    -0.56620
O685        O  0.34541597  0.58142114  0.26965412    -0.55790
O686        O  0.93253099  0.81264859  0.32350785    -0.57000
C687        C  0.93126727  0.88322669  0.22356282     0.75630
O688        O  0.91384054  0.76778671  0.20761771    -0.58160
C689        C  0.92878104  0.77866616  0.32495161     0.75600
C690        C  0.82453205  0.82180974  0.25628346     0.78000
Cd691      Cd  0.90474911  0.81708882  0.25593585     1.37460
O692        O  0.94054069  0.87407683  0.25815726    -0.56990
O693        O  0.84381813  0.83973193  0.28078774    -0.55800
C694        C  0.94911288  0.77111865  0.20690527     0.77960
O695        O  0.84260131  0.80220486  0.23238903    -0.58180
O696        O  0.90727002  0.86389473  0.20620056    -0.56630
O697        O  0.91057451  0.76409187  0.29736143    -0.56620
O698        O  0.96231657  0.79768561  0.22547009    -0.55790
O699        O  0.54603133  0.87330324  0.24134176    -0.57000
C700        C  0.55739374  0.77880482  0.30745815     0.75630
O701        O  0.57640424  0.76768413  0.19015832    -0.58160
C702        C  0.55622207  0.88356572  0.20746005     0.75600
C703        C  0.66275764  0.82078713  0.24502139     0.78000
Cd704      Cd  0.58273224  0.81705486  0.23907486     1.37470
O705        O  0.55307059  0.81268832  0.30550690    -0.56990
O706        O  0.64219615  0.83785781  0.26909183    -0.55800
C707        C  0.54104783  0.76924590  0.18930046     0.77960
O708        O  0.64606495  0.80361453  0.21802545    -0.58180
O709        O  0.57631776  0.76419479  0.28044829    -0.56630
O710        O  0.58118388  0.86515678  0.19040475    -0.56620
O711        O  0.52638623  0.79536109  0.20754126    -0.55790
O712        O  0.04059596  0.69779370  0.35296773    -0.57000
C713        C  0.03565811  0.75788471  0.45320116     0.75630
O714        O  0.94682314  0.72229135  0.35212044    -0.58160
C715        C  0.03931198  0.66384747  0.35453884     0.75600
C716        C  0.95061686  0.66176415  0.45242370     0.78000
Cd717      Cd  0.99314974  0.70998147  0.40440543     1.37470
O718        O  0.04851789  0.74543357  0.42122927    -0.56990
O719        O  0.98183917  0.67380343  0.46395874    -0.55800
C720        C  0.94735326  0.75621530  0.35466449     0.77960
O721        O  0.93784239  0.67421935  0.42051175    -0.58180
O722        O  0.00427845  0.74603783  0.46438853    -0.56630
O723        O  0.01872073  0.65069974  0.38095280    -0.56620
O724        O  0.96699390  0.76930957  0.38201819    -0.55790
C725        C  0.76479719  0.79245574  0.23919103    -0.19490
C726        C  0.78303432  0.82253597  0.25529985    -0.06060
C727        C  0.76134914  0.85207147  0.26863851     0.14810
C728        C  0.72218006  0.85064319  0.26512866    -0.19540
C729        C  0.70411321  0.82069910  0.24832932    -0.06060
C730        C  0.72586418  0.79101446  0.23559315     0.14800
C731        C  0.70849227  0.75711296  0.21918493    -0.22890
H732        H  0.78120773  0.76959839  0.22938877     0.16090
H733        H  0.70556817  0.87334951  0.27500074     0.16120
C734        C  0.77909248  0.88555204  0.28544184    -0.22840
H735        H  0.72969466  0.73592131  0.21336582     0.06330
H736        H  0.69440996  0.76289199  0.19082185     0.09560
H737        H  0.68806894  0.74605081  0.24055373     0.09560
H738        H  0.79878180  0.89722232  0.26370461     0.09540
H739        H  0.79423742  0.87896643  0.31297985     0.09540
H740        H  0.75795112  0.90643508  0.29270089     0.06310
C741        C  0.50354781  0.67661741  0.16678002    -0.19490
C742        C  0.46523977  0.68328488  0.17240303    -0.06060
C743        C  0.45228687  0.71925837  0.17054183     0.14810
C744        C  0.47846612  0.74736319  0.16991468    -0.19540
C745        C  0.51703378  0.74050744  0.17230478    -0.06060
C746        C  0.52976104  0.70470391  0.16725908     0.14800
C747        C  0.57069356  0.69527527  0.16571215    -0.22890
H748        H  0.51349743  0.64904946  0.16618930     0.16090
H749        H  0.46857240  0.77490921  0.17178397     0.16120
C750        C  0.41137570  0.72871503  0.17252867    -0.22840
H751        H  0.57512646  0.66615438  0.15978868     0.06330
H752        H  0.58422862  0.70152571  0.19431270     0.09560
H753        H  0.58445069  0.71055246  0.14172810     0.09560
H754        H  0.39974919  0.72129047  0.20165547     0.09540
H755        H  0.39601805  0.71445277  0.14874889     0.09540
H756        H  0.40664655  0.75804580  0.16863397     0.06310
C757        C  0.03576052  0.71618099  0.18786679    -0.19490
C758        C  0.01994193  0.68163678  0.18928929    -0.06060
C759        C  0.98099303  0.67791770  0.18288043     0.14810
C760        C  0.95847108  0.70881245  0.18308022    -0.19540
C761        C  0.97386276  0.74301004  0.19000196    -0.06060
C762        C  0.01323374  0.74705738  0.18848680     0.14800
C763        C  0.03203302  0.78340916  0.18960859    -0.22890
H764        H  0.06576602  0.71925163  0.19053548     0.16090
H765        H  0.92838957  0.70568105  0.18195305     0.16120
C766        C  0.96247301  0.64171092  0.17779058    -0.22840
H767        H  0.06238557  0.78123466  0.18324088     0.06330
H768        H  0.02936803  0.79582465  0.21919256     0.09560
H769        H  0.01952202  0.80125560  0.16702055     0.09560
H770        H  0.96225708  0.62674089  0.20594778     0.09540
H771        H  0.97732893  0.62589918  0.15484127     0.09540
H772        H  0.93291843  0.64453192  0.16832285     0.06310
C773        C  0.22080172  0.59668622  0.21656429    -0.19490
C774        C  0.20390308  0.58995370  0.25309497    -0.06060
C775        C  0.22689502  0.58129964  0.28566391     0.14810
C776        C  0.26598928  0.58188840  0.28119775    -0.19540
C777        C  0.28282928  0.59081992  0.24511602    -0.06060
C778        C  0.25967161  0.59713885  0.21199658     0.14800
C779        C  0.27522484  0.60415319  0.17145622    -0.22890
H780        H  0.20339647  0.60222806  0.19121925     0.16090
H781        H  0.28350656  0.57636268  0.30645867     0.16120
C782        C  0.21080523  0.57248092  0.32544889    -0.22840
H783        H  0.25285468  0.60582630  0.14888339     0.06330
H784        H  0.29424432  0.58190541  0.16271146     0.09560
H785        H  0.29036973  0.63020449  0.17105216     0.09560
H786        H  0.19312653  0.54799995  0.32326876     0.09540
H787        H  0.19389125  0.59546283  0.33642129     0.09540
H788        H  0.23298249  0.56704848  0.34750436     0.06310
C789        C  0.26381632  0.85045008  0.46642942    -0.19490
C790        C  0.28429162  0.83951856  0.49952434    -0.06060
C791        C  0.26459971  0.82740020  0.03319887     0.14810
C792        C  0.22527975  0.82869711  0.03343651    -0.19540
C793        C  0.20497141  0.84165289  0.50101057    -0.06060
C794        C  0.22473439  0.85161565  0.46651273     0.14800
C795        C  0.20535696  0.86337006  0.42922844    -0.22890
H796        H  0.27854878  0.85877329  0.44015851     0.16090
H797        H  0.21036034  0.82033841  0.05957978     0.16120
C798        C  0.28443812  0.81379318  0.06932922    -0.22840
H799        H  0.22537152  0.86775103  0.40474244     0.06330
H800        H  0.19059296  0.88925684  0.43417230     0.09560
H801        H  0.18533458  0.84230346  0.41950873     0.09560
H802        H  0.30258917  0.83526517  0.08168396     0.09540
H803        H  0.30149631  0.78981387  0.06165440     0.09540
H804        H  0.26451103  0.80565209  0.09270772     0.06310
C805        C  0.52957895  0.95691789  0.41739814    -0.19490
C806        C  0.51398876  0.99120850  0.42311616    -0.06060
C807        C  0.47460822  0.99503737  0.42077096     0.14810
C808        C  0.45217600  0.96406416  0.42072537    -0.19540
C809        C  0.46808124  0.92963305  0.42335893    -0.06060
C810        C  0.50713999  0.92594309  0.41761011     0.14800
C811        C  0.52582931  0.88970800  0.41359712    -0.22890
H812        H  0.55968447  0.95387462  0.41686479     0.16090
H813        H  0.42212779  0.96706799  0.42287097     0.16120
C814        C  0.45565919  0.53131980  0.42039975    -0.22840
H815        H  0.55546867  0.89244958  0.40441456     0.06330
H816        H  0.51126353  0.87340104  0.39084345     0.09560
H817        H  0.52581363  0.87528495  0.44209274     0.09560
H818        H  0.46849130  0.54862484  0.39751521     0.09540
H819        H  0.45775971  0.54450351  0.44963739     0.09540
H820        H  0.42543191  0.52885299  0.41349673     0.06310
C821        C  0.00814948  0.99544815  0.43645850    -0.19490
C822        C  0.96962161  0.98852823  0.43898670    -0.06060
C823        C  0.95691831  0.95264892  0.43438882     0.14810
C824        C  0.98315394  0.92462467  0.43428656    -0.19540
C825        C  0.02141296  0.93145704  0.43983737    -0.06060
C826        C  0.03434604  0.96741558  0.43749743     0.14800
C827        C  0.07524088  0.97699141  0.43941821    -0.22890
H828        H  0.01801521  0.52302247  0.43791608     0.16090
H829        H  0.97326928  0.89702909  0.43403535     0.16120
C830        C  0.91601389  0.94307594  0.43280682    -0.22840
H831        H  0.07991306  0.00627958  0.43510359     0.06330
H832        H  0.09066132  0.96248286  0.41587323     0.09560
H833        H  0.08685456  0.96996646  0.96867940     0.09560
H834        H  0.90219989  0.95828518  0.40879986     0.09540
H835        H  0.90244278  0.94923638  0.46140026     0.09540
H836        H  0.91169398  0.91393765  0.42688505     0.06310
C837        C  0.76201883  0.59152042  0.02746997    -0.19490
C838        C  0.78211909  0.57383218  0.49754812    -0.06060
C839        C  0.76202036  0.55849508  0.46557208     0.14810
C840        C  0.72293273  0.56006274  0.46541238    -0.19540
C841        C  0.70270698  0.57648268  0.49598148    -0.06060
C842        C  0.72272823  0.59316282  0.02715857     0.14800
C843        C  0.70332836  0.61248392  0.06046345    -0.22890
H844        H  0.77710901  0.60379349  0.05167876     0.16090
H845        H  0.70800652  0.54779694  0.44109708     0.16120
C846        C  0.78095590  0.54024462  0.43116825    -0.22840
H847        H  0.72352125  0.62407779  0.08185317     0.06330
H848        H  0.68520446  0.59342820  0.07676035     0.09560
H849        H  0.68634973  0.63502242  0.04869086     0.09560
H850        H  0.79642840  0.51612476  0.44136720     0.09540
H851        H  0.80025743  0.55936684  0.41651290     0.09540
H852        H  0.76062479  0.53095042  0.40862336     0.06310
O853        O  0.93149920  0.56203981  0.57168411    -0.57000
C854        C  0.93188225  0.63217198  0.97273037     0.75630
O855        O  0.91039039  0.51499318  0.95775166    -0.58160
C856        C  0.92762438  0.52810344  0.57360433     0.75600
C857        C  0.82362592  0.57161686  0.00074166     0.78000
Cd858      Cd  0.90382623  0.56594881  0.50397751     1.37470
O859        O  0.94113878  0.62218887  0.00702490    -0.56990
O860        O  0.84176889  0.58708376  0.52812287    -0.55800
C861        C  0.94557943  0.51744897  0.95540601     0.77960
O862        O  0.84293105  0.55385650  0.97637976    -0.58230
O863        O  0.90755875  0.61350227  0.95507098    -0.56630
O864        O  0.90919130  0.51333020  0.54630925    -0.56620
O865        O  0.96008708  0.54471778  0.97168970    -0.55790
O866        O  0.54414904  0.62310805  0.99085172    -0.57000
C867        C  0.55721138  0.52886749  0.55771681     0.75630
O868        O  0.57363969  0.51666722  0.94152017    -0.58160
C869        C  0.55445759  0.63314725  0.95690303     0.75600
C870        C  0.66112762  0.57435231  0.99410667     0.78000
Cd871      Cd  0.58122890  0.56715541  0.98901925     1.37460
O872        O  0.55245573  0.56270370  0.55569836    -0.56990
O873        O  0.63983641  0.58919437  0.01914313    -0.55800
C874        C  0.53835707  0.51982542  0.93977852     0.77960
O875        O  0.64498473  0.55674351  0.96695864    -0.58180
O876        O  0.57600114  0.51432982  0.53053133    -0.56630
O877        O  0.57948804  0.61468332  0.94004117    -0.56620
O878        O  0.52466020  0.54678912  0.95720806    -0.55790
O879        O  0.44724032  0.94759949  0.58744800    -0.57000
C880        C  0.45196744  0.50854840  0.68661604     0.75630
O881        O  0.55067876  0.92583236  0.65531280    -0.58160
C882        C  0.44928406  0.91369201  0.58898012     0.75600
C883        C  0.53923656  0.50651437  0.58778028     0.78000
Cd884      Cd  0.49468550  0.96048224  0.63842113     1.37460
O885        O  0.43867592  0.99502619  0.65535519    -0.56990
O886        O  0.51940758  0.51968981  0.61491081    -0.55800
C887        C  0.53755360  0.91304325  0.68690241     0.77960
O888        O  0.54059430  0.97258094  0.58589883    -0.58180
O889        O  0.48384595  0.49764049  0.69740690    -0.56630
O890        O  0.47030409  0.90087198  0.61521562    -0.56620
O891        O  0.50593444  0.92453281  0.69787846    -0.55790
O892        O  0.05412076  0.85728344  0.57323845    -0.57000
C893        C  0.05457907  0.78721051  0.97402288     0.75630
O894        O  0.07947429  0.90425229  0.96094806    -0.58160
C895        C  0.05851484  0.89115154  0.57554596     0.75600
C896        C  0.16360926  0.84501283  0.00416145     0.78000
Cd897      Cd  0.08360326  0.85282619  0.50639443     1.37460
O898        O  0.04513386  0.79726338  0.00831285    -0.56990
O899        O  0.14489631  0.83014065  0.53137364    -0.55800
C900        C  0.04440083  0.90217705  0.95689170     0.77960
O901        O  0.14505168  0.86345593  0.97991070    -0.58180
O902        O  0.07938037  0.80554459  0.95685946    -0.56630
O903        O  0.07808601  0.90557423  0.54904586    -0.56620
O904        O  0.02891900  0.87492385  0.97194738    -0.55790
O905        O  0.44415669  0.79725508  0.99198465    -0.57000
C906        C  0.43069182  0.89099984  0.55942813     0.75630
O907        O  0.40985043  0.90320024  0.94453060    -0.58160
C908        C  0.43328730  0.78671466  0.95832667     0.75600
C909        C  0.32573243  0.84285818  0.99752049     0.78000
Cd910      Cd  0.40531807  0.85214383  0.99125689     1.37460
O911        O  0.43594894  0.85724370  0.55703061    -0.56990
O912        O  0.34761609  0.82912567  0.02265329    -0.55800
C913        C  0.44500918  0.90049686  0.94066590     0.77960
O914        O  0.34111821  0.86037110  0.96998913    -0.58180
O915        O  0.41078073  0.90516398  0.53300698    -0.56630
O916        O  0.40731144  0.80438191  0.94219338    -0.56620
O917        O  0.45995888  0.87352045  0.95667196    -0.55790
O918        O  0.94563700  0.97197383  0.60151632    -0.57000
C919        C  0.94980391  0.91255292  0.70261511     0.75630
O920        O  0.04038686  0.94760583  0.60309515    -0.58160
C921        C  0.94633990  0.50592606  0.60349894     0.75600
C922        C  0.03455115  0.50836096  0.70246768     0.78000
Cd923      Cd  0.99227623  0.96015783  0.65378333     1.37470
O924        O  0.93722324  0.92407583  0.67020184    -0.56990
O925        O  0.00301944  0.49673859  0.71345820    -0.55800
C926        C  0.03916455  0.91366663  0.60487412     0.77960
O927        O  0.04758483  0.99567657  0.67068369    -0.58180
O928        O  0.98077362  0.92519435  0.71412541    -0.56630
O929        O  0.96630937  0.51928214  0.63043495    -0.56620
O930        O  0.01814544  0.90064517  0.63099439    -0.55790
O931        O  0.54067357  0.72256268  0.83571999    -0.57000
C932        C  0.53597667  0.66252002  0.93606742     0.75630
O933        O  0.43819699  0.74456729  0.90574241    -0.58160
C934        C  0.53889814  0.75649232  0.83723252     0.75600
C935        C  0.44818919  0.66413231  0.83747220     0.78000
Cd936      Cd  0.49389157  0.71027918  0.88737349     1.37470
O937        O  0.54940470  0.67520599  0.90456629    -0.56990
O938        O  0.46982803  0.65099752  0.86295131    -0.55800
C939        C  0.45200819  0.75766169  0.93697763     0.77960
O940        O  0.44573110  0.69804566  0.83684536    -0.58180
O941        O  0.50430840  0.67408932  0.94674333    -0.56630
O942        O  0.51826528  0.76965220  0.86369873    -0.56620
O943        O  0.48412402  0.74675549  0.94693399    -0.55790
O944        O  0.05347536  0.60760976  0.82231734    -0.57000
C945        C  0.05351362  0.53764295  0.72331451     0.75630
O946        O  0.07794731  0.65534026  0.71083075    -0.58160
C947        C  0.05812713  0.64144392  0.82476625     0.75600
C948        C  0.16259425  0.59395739  0.75550120     0.78000
Cd949      Cd  0.08273320  0.60315551  0.75553878     1.37460
O950        O  0.04369731  0.54803410  0.75737804    -0.56990
O951        O  0.14289731  0.58079000  0.78292462    -0.55800
C952        C  0.04296619  0.65222548  0.70601037     0.77960
O953        O  0.14506177  0.61124531  0.72931120    -0.58180
O954        O  0.07878582  0.55557139  0.70638056    -0.56630
O955        O  0.07749127  0.65592372  0.79811760    -0.56620
O956        O  0.02814336  0.62449732  0.72056476    -0.55790
O957        O  0.43474199  0.60812112  0.80472367    -0.57000
C958        C  0.43293994  0.53798055  0.70709498     0.75630
O959        O  0.34028576  0.61129606  0.71592481    -0.58160
C960        C  0.42939449  0.64181102  0.80771464     0.75600
C961        C  0.44231470  0.65373913  0.68919634     0.78000
Cd962      Cd  0.40395944  0.60368717  0.73896534     1.37460
O963        O  0.44320210  0.54896007  0.74077478    -0.56990
O964        O  0.45799433  0.62648344  0.70399622    -0.55800
C965        C  0.32421486  0.59436716  0.74334198     0.77960
O966        O  0.40719782  0.65552587  0.69336036    -0.58180
O967        O  0.40726996  0.55548037  0.69022538    -0.56630
O968        O  0.40922998  0.65623933  0.78168776    -0.56620
O969        O  0.34541596  0.58142114  0.76965413    -0.55790
O970        O  0.93253098  0.81264861  0.82350785    -0.57000
C971        C  0.93126726  0.88322671  0.72356282     0.75630
O972        O  0.91384055  0.76778673  0.70761772    -0.58160
C973        C  0.92878103  0.77866618  0.82495162     0.75600
C974        C  0.82453205  0.82180975  0.75628347     0.78000
Cd975      Cd  0.90474910  0.81708885  0.75593586     1.37460
O976        O  0.94054067  0.87407686  0.75815727    -0.56990
O977        O  0.84381812  0.83973195  0.78078775    -0.55800
C978        C  0.94911290  0.77111868  0.70690529     0.77960
O979        O  0.84260131  0.80220487  0.73238904    -0.58180
O980        O  0.90727002  0.86389474  0.70620056    -0.56630
O981        O  0.91057450  0.76409189  0.79736144    -0.56620
O982        O  0.96231658  0.79768564  0.72547012    -0.55790
O983        O  0.54603132  0.87330323  0.74134175    -0.57000
C984        C  0.55739373  0.77880482  0.80745814     0.75630
O985        O  0.57640424  0.76768412  0.69015832    -0.58160
C986        C  0.55622206  0.88356571  0.70746005     0.75600
C987        C  0.66275764  0.82078713  0.74502139     0.78000
Cd988      Cd  0.58273223  0.81705485  0.73907486     1.37470
O989        O  0.55307058  0.81268831  0.80550690    -0.56990
O990        O  0.64219614  0.83785781  0.76909183    -0.55800
C991        C  0.54104783  0.76924589  0.68930046     0.77960
O992        O  0.64606495  0.80361453  0.71802545    -0.58180
O993        O  0.57631775  0.76419479  0.78044829    -0.56630
O994        O  0.58118387  0.86515678  0.69040475    -0.56620
O995        O  0.52638623  0.79536109  0.70754125    -0.55790
O996        O  0.04059596  0.69779371  0.85296772    -0.57000
C997        C  0.03565812  0.75788470  0.95320115     0.75630
O998        O  0.94682313  0.72229137  0.85212044    -0.58160
C999        C  0.03931197  0.66384747  0.85453883     0.75600
C1000       C  0.95061686  0.66176415  0.95242369     0.78000
Cd1001     Cd  0.99314974  0.70998147  0.90440542     1.37470
O1002       O  0.04851789  0.74543357  0.92122925    -0.56990
O1003       O  0.98183917  0.67380345  0.96395874    -0.55800
C1004       C  0.94735325  0.75621531  0.85466449     0.77960
O1005       O  0.93784239  0.67421935  0.92051175    -0.58180
O1006       O  0.00427846  0.74603782  0.96438853    -0.56630
O1007       O  0.01872072  0.65069974  0.88095278    -0.56620
O1008       O  0.96699391  0.76930958  0.88201819    -0.55790
C1009       C  0.76479719  0.79245575  0.73919105    -0.19490
C1010       C  0.78303431  0.82253598  0.75529985    -0.06060
C1011       C  0.76134913  0.85207148  0.76863850     0.14810
C1012       C  0.72218005  0.85064320  0.76512865    -0.19540
C1013       C  0.70411321  0.82069911  0.74832932    -0.06060
C1014       C  0.72586417  0.79101446  0.73559317     0.14800
C1015       C  0.70849227  0.75711295  0.71918497    -0.22890
H1016       H  0.78120773  0.76959839  0.72938880     0.16090
H1017       H  0.70556815  0.87334952  0.77500072     0.16120
C1018       C  0.77909246  0.88555206  0.78544182    -0.22840
H1019       H  0.72969467  0.73592130  0.71336586     0.06330
H1020       H  0.69440996  0.76289198  0.69082188     0.09560
H1021       H  0.68806893  0.74605081  0.74055377     0.09560
H1022       H  0.79878178  0.89722234  0.76370459     0.09540
H1023       H  0.79423741  0.87896646  0.81297983     0.09540
H1024       H  0.75795111  0.90643511  0.79270087     0.06310
C1025       C  0.50354780  0.67661740  0.66678002    -0.19490
C1026       C  0.46523976  0.68328488  0.67240302    -0.06060
C1027       C  0.45228686  0.71925837  0.67054183     0.14810
C1028       C  0.47846612  0.74736318  0.66991467    -0.19540
C1029       C  0.51703378  0.74050743  0.67230478    -0.06060
C1030       C  0.52976103  0.70470390  0.66725909     0.14800
C1031       C  0.57069356  0.69527526  0.66571216    -0.22890
H1032       H  0.51349742  0.64904945  0.66618930     0.16090
H1033       H  0.46857239  0.77490920  0.67178396     0.16120
C1034       C  0.41137570  0.72871502  0.67252865    -0.22840
H1035       H  0.57512646  0.66615437  0.65978869     0.06330
H1036       H  0.58422861  0.70152570  0.69431271     0.09560
H1037       H  0.58445069  0.71055245  0.64172811     0.09560
H1038       H  0.39974919  0.72129047  0.70165545     0.09540
H1039       H  0.39601805  0.71445276  0.64874887     0.09540
H1040       H  0.40664655  0.75804579  0.66863395     0.06310
C1041       C  0.03576054  0.71618102  0.68786683    -0.19490
C1042       C  0.01994195  0.68163681  0.68928929    -0.06060
C1043       C  0.98099305  0.67791773  0.68288042     0.14810
C1044       C  0.95847110  0.70881249  0.68308022    -0.19540
C1045       C  0.97386278  0.74301007  0.69000199    -0.06060
C1046       C  0.01323376  0.74705742  0.68848685     0.14800
C1047       C  0.03203304  0.78340919  0.68960868    -0.22890
H1048       H  0.06576604  0.71925166  0.69053554     0.16090
H1049       H  0.92838959  0.70568109  0.68195303     0.16120
C1050       C  0.96247303  0.64171096  0.67779053    -0.22840
H1051       H  0.06238560  0.78123469  0.68324098     0.06330
H1052       H  0.02936804  0.79582466  0.71919265     0.09560
H1053       H  0.01952206  0.80125564  0.66702064     0.09560
H1054       H  0.96225710  0.62674091  0.70594772     0.09540
H1055       H  0.97732896  0.62589923  0.65484122     0.09540
H1056       H  0.93291846  0.64453196  0.66832279     0.06310
C1057       C  0.22080172  0.59668617  0.71656428    -0.19490
C1058       C  0.20390307  0.58995368  0.75309496    -0.06060
C1059       C  0.22689501  0.58129966  0.78566392     0.14810
C1060       C  0.26598928  0.58188842  0.78119776    -0.19540
C1061       C  0.28282928  0.59081991  0.74511602    -0.06060
C1062       C  0.25967161  0.59713880  0.71199658     0.14800
C1063       C  0.27522483  0.60415309  0.67145620    -0.22890
H1064       H  0.20339646  0.60222798  0.69121923     0.16090
H1065       H  0.28350655  0.57636272  0.80645869     0.16120
C1066       C  0.21080522  0.57248098  0.82544891    -0.22840
H1067       H  0.25285468  0.60582618  0.64888337     0.06330
H1068       H  0.29424432  0.58190531  0.66271148     0.09560
H1069       H  0.29036972  0.63020440  0.67105211     0.09560
H1070       H  0.19312652  0.54800000  0.82326881     0.09540
H1071       H  0.19389124  0.59546289  0.83642128     0.09540
H1072       H  0.23298248  0.56704856  0.84750438     0.06310
C1073       C  0.26381633  0.85045011  0.96642943    -0.19490
C1074       C  0.28429163  0.83951857  0.99952434    -0.06060
C1075       C  0.26459971  0.82740023  0.53319889     0.14810
C1076       C  0.22527974  0.82869714  0.53343652    -0.19540
C1077       C  0.20497142  0.84165290  0.00101057    -0.06060
C1078       C  0.22473440  0.85161569  0.96651274     0.14800
C1079       C  0.20535698  0.86337014  0.92922846    -0.22890
H1080       H  0.27854879  0.85877335  0.94015853     0.16090
H1081       H  0.21036033  0.82033847  0.55957980     0.16120
C1082       C  0.28443811  0.81379325  0.56932926    -0.22840
H1083       H  0.22537153  0.86775113  0.90474247     0.06330
H1084       H  0.19059297  0.88925691  0.93417235     0.09560
H1085       H  0.18533459  0.84230355  0.91950872     0.09560
H1086       H  0.30258917  0.83526526  0.58168397     0.09540
H1087       H  0.30149631  0.78981393  0.56165446     0.09540
H1088       H  0.26451102  0.80565218  0.59270776     0.06310
C1089       C  0.52957898  0.95691788  0.91739816    -0.19490
C1090       C  0.51398878  0.99120849  0.92311616    -0.06060
C1091       C  0.47460824  0.99503736  0.92077096     0.14810
C1092       C  0.45217602  0.96406414  0.92072537    -0.19540
C1093       C  0.46808126  0.92963304  0.92335894    -0.06060
C1094       C  0.50714001  0.92594307  0.91761013     0.14800
C1095       C  0.52582933  0.88970799  0.91359715    -0.22890
H1096       H  0.55968450  0.95387461  0.91686482     0.16090
H1097       H  0.42212781  0.96706798  0.92287097     0.16120
C1098       C  0.45565922  0.53131977  0.92039969    -0.22840
H1099       H  0.55546869  0.89244957  0.90441460     0.06330
H1100       H  0.51126356  0.87340102  0.89084348     0.09560
H1101       H  0.52581365  0.87528494  0.94209278     0.09560
H1102       H  0.46849135  0.54862480  0.89751515     0.09540
H1103       H  0.45775974  0.54450350  0.94963733     0.09540
H1104       H  0.42543196  0.52885297  0.91349666     0.06310
C1105       C  0.00814948  0.99544813  0.93645849    -0.19490
C1106       C  0.96962160  0.98852820  0.93898670    -0.06060
C1107       C  0.95691830  0.95264890  0.93438883     0.14810
C1108       C  0.98315393  0.92462465  0.93428658    -0.19540
C1109       C  0.02141295  0.93145702  0.93983737    -0.06060
C1110       C  0.03434603  0.96741556  0.93749742     0.14800
C1111       C  0.07524087  0.97699139  0.93941818    -0.22890
H1112       H  0.01801523  0.52302249  0.93791609     0.16090
H1113       H  0.97326927  0.89702907  0.93403537     0.16120
C1114       C  0.91601388  0.94307591  0.93280685    -0.22840
H1115       H  0.07991305  0.00627956  0.93510356     0.06330
H1116       H  0.09066131  0.96248283  0.91587320     0.09560
H1117       H  0.08685456  0.96996648  0.46867943     0.09560
H1118       H  0.90219987  0.95828516  0.90879988     0.09540
H1119       H  0.90244277  0.94923636  0.96140028     0.09540
H1120       H  0.91169397  0.91393763  0.92688508     0.06310
C1121       C  0.76201882  0.59152038  0.52747000    -0.19490
C1122       C  0.78211910  0.57383216  0.99754813    -0.06060
C1123       C  0.76202037  0.55849501  0.96557212     0.14810
C1124       C  0.72293274  0.56006267  0.96541242    -0.19540
C1125       C  0.70270699  0.57648268  0.99598148    -0.06060
C1126       C  0.72272821  0.59316277  0.52715861     0.14800
C1127       C  0.70332834  0.61248380  0.56046353    -0.22890
H1128       H  0.77710899  0.60379340  0.55167882     0.16090
H1129       H  0.70800653  0.54779683  0.94109715     0.16120
C1130       C  0.78095590  0.54024447  0.93116834    -0.22840
H1131       H  0.72352123  0.62407763  0.58185328     0.06330
H1132       H  0.68520444  0.59342805  0.57676038     0.09560
H1133       H  0.68634972  0.63502233  0.54869100     0.09560
H1134       H  0.79642841  0.51612464  0.94136735     0.09540
H1135       H  0.80025743  0.55936666  0.91651293     0.09540
H1136       H  0.76062479  0.53095021  0.90862347     0.06310
loop_ 
_geom_bond_atom_site_label_1 
_geom_bond_atom_site_label_2 
_geom_bond_distance 
_geom_bond_site_symmetry_2 
_ccdc_geom_bond_type 
O1            C4   1.270       .  A
O1           Cd6   2.509       .  S
C2           O11   1.263       .  A
C2            O7   1.268       .  A
C2          C148   1.463       .  S
O3            C9   1.266       .  A
O3         Cd290   2.466       .  S
C4           O12   1.262       .  A
C4           C69   1.472       .  S
C5           O10   1.263       .  A
C5          O292   1.270       .  A
C5          C270   1.492       .  S
Cd6          O12   2.439       .  S
Cd6           O8   2.495       .  S
Cd6         O287   2.466   1_554  S
Cd6         O297   2.425   1_554  S
Cd6         O295   2.433   1_554  S
Cd6         O291   2.482       .  S
Cd6         O294   2.415   1_554  S
O7         Cd290   2.482       .  S
O8          C289   1.270       .  A
C9           O13   1.264       .  A
C9          C822   1.484   1_545  S
O10        Cd290   2.415       .  S
O11        Cd290   2.433       .  S
O13        Cd290   2.425       .  S
O14          C17   1.269       .  A
O14         Cd19   2.467       .  S
C15          O24   1.263       .  A
C15          O20   1.271       .  A
C15          C31   1.468       .  S
O16          C22   1.270       .  A
O16         Cd19   2.485       .  S
C17          O25   1.265       .  A
C17          C80   1.461       .  S
C18          O23   1.268       .  A
C18          O21   1.267       .  A
C18         C273   1.492       .  S
Cd19         O26   2.416       .  S
Cd19         O25   2.432       .  S
Cd19         O23   2.433       .  S
Cd19         O21   2.473       .  S
Cd19        O308   2.428       .  S
Cd19        O304   2.495       .  S
O20        Cd303   2.495   1_554  S
C22          O26   1.261       .  A
C22         C806   1.486   1_545  S
O24        Cd303   2.428   1_554  S
O27          C30   1.263       .  A
O27         Cd32   2.471       .  S
C28          O37   1.266   1_545  A
C28         O601   1.266   1_545  A
C28         C106   1.462       .  S
O29          C35   1.266       .  A
O29         Cd32   2.452       .  S
C30          O38   1.261       .  A
C30          C54   1.468       .  S
C31          O34   1.261       .  A
C31         O604   1.263   1_545  A
Cd32         O39   2.459       .  S
Cd32         O38   2.505       .  S
Cd32         O33   2.448       .  S
Cd32         O36   2.469       .  S
Cd32        O605   2.460       .  S
Cd32        O602   2.504       .  S
O33         C596   1.266       .  A
O34        Cd600   2.504   1_545  S
C35          O39   1.266       .  A
C35         C134   1.463       .  S
O36         C599   1.263       .  A
O37        Cd600   2.460       .  S
O40          C43   1.270       .  A
O40         Cd45   2.510       .  S
C41          O50   1.263       .  A
C41          O46   1.268       .  A
C41         C145   1.463       .  S
O42          C48   1.266       .  A
O42        Cd329   2.465       .  S
C43          O51   1.262       .  A
C43          C74   1.472       .  S
C44          O49   1.262       .  A
C44         O331   1.270       .  A
C44         C225   1.490       .  S
Cd45         O51   2.441       .  S
Cd45         O47   2.500       .  S
Cd45        O326   2.465   1_554  S
Cd45        O336   2.426   1_554  S
Cd45        O334   2.433   1_554  S
Cd45        O330   2.482       .  S
Cd45        O333   2.410   1_554  S
O46        Cd329   2.482       .  S
O47         C328   1.270       .  A
C48          O52   1.264       .  A
C48         C257   1.483       .  S
O49        Cd329   2.410       .  S
O50        Cd329   2.433       .  S
O52        Cd329   2.426       .  S
O53          C56   1.269       .  A
O53         Cd58   2.468       .  S
C54          O63   1.263       .  A
C54          O59   1.270       .  A
O55          C61   1.270       .  A
O55         Cd58   2.483       .  S
C56          O64   1.264       .  A
C56          C87   1.461       .  S
C57          O62   1.268       .  A
C57          O60   1.267       .  A
C57         C222   1.491       .  S
Cd58         O65   2.418       .  S
Cd58         O64   2.431       .  S
Cd58         O62   2.429       .  S
Cd58         O60   2.479       .  S
Cd58        O347   2.431       .  S
Cd58        O343   2.496       .  S
O59        Cd342   2.496   1_554  S
C61          O65   1.261       .  A
C61         C241   1.485       .  S
O63        Cd342   2.431   1_554  S
O66         C637   1.263       .  A
O66         Cd71   2.478       .  S
C67          O76   1.265       .  A
C67          O72   1.266       .  A
C67         C119   1.463       .  S
O68          C74   1.263       .  A
O68         Cd71   2.479   1_455  S
C69          O77   1.261       .  A
C69         O634   1.263   1_545  A
C70          O73   1.266   1_545  A
C70         O643   1.266   1_545  A
C70          C93   1.463       .  S
Cd71         O78   2.516   1_655  S
Cd71         O76   2.466       .  S
Cd71         O72   2.449       .  S
Cd71         O75   2.447   1_655  S
Cd71        O645   2.516       .  S
Cd71        O641   2.467   1_655  S
O73        Cd639   2.467   1_455  S
C74          O78   1.262       .  A
O75         C638   1.266       .  A
O77        Cd639   2.516   1_545  S
O79          C82   1.263       .  A
O79         Cd84   2.470       .  S
C80          O89   1.265       .  A
C80          O85   1.266       .  A
O81          C87   1.266       .  A
O81         Cd84   2.446       .  S
C82          O90   1.261       .  A
C82         C132   1.468       .  S
C83          O88   1.263       .  A
C83          O86   1.261       .  A
C83         C108   1.468       .  S
Cd84         O91   2.456       .  S
Cd84         O90   2.507       .  S
Cd84         O89   2.457       .  S
Cd84         O85   2.448       .  S
Cd84         O88   2.474       .  S
Cd84         O86   2.503       .  S
C87          O91   1.266       .  A
O92          C95   1.270       .  A
O92         Cd97   2.504       .  S
C93         O102   1.264       .  A
C93          O98   1.269       .  A
O94         C100   1.268       .  A
O94         Cd97   2.473       .  S
C95         O103   1.262       .  A
C95         C147   1.471       .  S
C96         O101   1.266       .  A
C96          O99   1.268       .  A
C96         C206   1.489       .  S
Cd97        O104   2.422       .  S
Cd97        O103   2.439       .  S
Cd97        O102   2.432       .  S
Cd97         O98   2.480       .  S
Cd97        O101   2.422       .  S
Cd97         O99   2.490       .  S
C100        O104   1.261       .  A
C100        C190   1.483       .  S
O105        C108   1.270       .  A
O105       Cd110   2.496       .  S
C106        O115   1.264       .  A
C106        O111   1.268       .  A
O107        C113   1.265       .  A
O107       Cd110   2.427       .  S
C108        O116   1.262       .  A
C109        O114   1.267       .  A
C109        O112   1.264       .  A
C109        C174   1.486       .  S
Cd110       O117   2.485       .  S
Cd110       O116   2.436       .  S
Cd110       O115   2.438       .  S
Cd110       O111   2.472       .  S
Cd110       O114   2.479       .  S
Cd110       O112   2.425       .  S
C113        O117   1.269       .  A
C113        C209   1.489       .  S
O118        C121   1.271       .  A
O118       Cd123   2.508       .  S
C119        O128   1.264       .  A
C119        O124   1.269       .  A
O120        C126   1.269       .  A
O120       Cd123   2.477       .  S
C121        O129   1.262       .  A
C121        C152   1.471       .  S
C122        O127   1.267       .  A
C122        O125   1.268       .  A
C122        C158   1.486       .  S
Cd123       O130   2.416       .  S
Cd123       O129   2.433       .  S
Cd123       O128   2.431       .  S
Cd123       O124   2.475       .  S
Cd123       O127   2.428       .  S
Cd123       O125   2.485       .  S
C126        O130   1.261       .  A
C126        C193   1.484       .  S
O131        C134   1.268       .  A
O131       Cd136   2.469       .  S
C132        O141   1.262       .  A
C132        O137   1.270       .  A
O133        C139   1.268       .  A
O133       Cd136   2.481       .  S
C134        O142   1.265       .  A
C135        O140   1.265       .  A
C135        O138   1.269       .  A
C135        C161   1.485       .  S
Cd136       O143   2.421       .  S
Cd136       O142   2.440       .  S
Cd136       O141   2.430       .  S
Cd136       O137   2.501       .  S
Cd136       O140   2.429       .  S
Cd136       O138   2.483       .  S
C139        O143   1.264       .  A
C139        C177   1.486       .  S
O144        C147   1.263       .  A
O144       Cd149   2.478   1_455  S
C145        O154   1.266       .  A
C145        O150   1.266       .  A
O146        C152   1.263       .  A
O146       Cd149   2.474       .  S
C147        O155   1.261       .  A
C148        O153   1.266       .  A
C148        O151   1.266       .  A
Cd149       O156   2.515       .  S
Cd149       O155   2.512   1_655  S
Cd149       O154   2.467   1_655  S
Cd149       O150   2.446   1_655  S
Cd149       O153   2.448       .  S
Cd149       O151   2.467       .  S
C152        O156   1.261       .  A
C157        C158   1.403       .  A
C157        C162   1.400       .  A
C157        H164   1.084       .  S
C158        C159   1.417       .  A
C159        C160   1.408       .  A
C159        C166   1.507       .  S
C160        C161   1.406       .  A
C160        H165   1.084       .  S
C161        C162   1.416       .  A
C162        C163   1.509       .  S
C163        H167   1.111       .  S
C163        H168   1.109       .  S
C163        H169   1.111       .  S
C166        H170   1.110       .  S
C166        H171   1.109       .  S
C166        H172   1.111       .  S
C173        C174   1.407       .  A
C173        C178   1.403       .  A
C173        H180   1.084       .  S
C174        C175   1.416       .  A
C175        C176   1.403       .  A
C175        C182   1.508       .  S
C176        C177   1.407       .  A
C176        H181   1.084       .  S
C177        C178   1.416       .  A
C178        C179   1.508       .  S
C179        H183   1.111       .  S
C179        H184   1.110       .  S
C179        H185   1.110       .  S
C182        H186   1.110       .  S
C182        H187   1.110       .  S
C182        H188   1.111       .  S
C189        C190   1.404       .  A
C189        C194   1.402       .  A
C189        H196   1.084       .  S
C190        C191   1.418   1_455  A
C191        C192   1.403       .  A
C191        C198   1.509       .  S
C192        C193   1.404       .  A
C192        H197   1.084       .  S
C193        C194   1.419   1_655  A
C194        C195   1.509       .  S
C195        H199   1.111       .  S
C195        H200   1.109       .  S
C195        H201   1.110       .  S
C198        H202   1.108       .  S
C198        H203   1.110       .  S
C198        H204   1.111       .  S
C205        C206   1.404       .  A
C205        C210   1.401       .  A
C205        H212   1.083       .  S
C206        C207   1.417       .  A
C207        C208   1.408       .  A
C207        C214   1.507       .  S
C208        C209   1.407       .  A
C208        H213   1.083       .  S
C209        C210   1.418       .  A
C210        C211   1.510       .  S
C211        H215   1.111       .  S
C211        H216   1.111       .  S
C211        H217   1.109       .  S
C214        H218   1.110       .  S
C214        H219   1.110       .  S
C214        H220   1.111       .  S
C221        C222   1.404       .  A
C221        C226   1.400       .  A
C221        H228   1.083       .  S
C222        C507   1.419       .  A
C223        C224   1.409       .  A
C223        C506   1.419   1_554  A
C223        C230   1.507       .  S
C224        C509   1.406       .  A
C224        H229   1.083       .  S
C225        C226   1.420       .  A
C225        C508   1.406       .  A
C226        C227   1.510       .  S
C227        H231   1.111       .  S
C227        H232   1.110       .  S
C227        H233   1.111       .  S
C230        H234   1.110       .  S
C230        H235   1.110       .  S
C230        H236   1.111       .  S
C237        C238   1.404       .  A
C237        C242   1.403       .  A
C237        H244   1.084       .  S
C238        C590   1.486       .  S
C238        C239   1.419       .  A
C239        C240   1.403       .  A
C239        C814   1.509       .  S
C240        C241   1.403       .  A
C240        H245   1.084       .  S
C241        C242   1.419       .  A
C242        C243   1.509       .  S
C243        H247   1.111       .  S
C243        H248   1.110       .  S
C243        H249   1.108       .  S
C246        C807   1.509   1_545  S
C246        H250   1.110       .  S
C246        H251   1.109       .  S
C246        H252   1.111       .  S
C253        C254   1.406   1_455  A
C253        C258   1.402       .  A
C253        H828   1.084       .  S
C254        C577   1.484       .  S
C254        C255   1.416       .  A
C255        C256   1.402       .  A
C255        C262   1.508       .  S
C256        C257   1.406   1_655  A
C256        H261   1.084       .  S
C257        C258   1.416       .  A
C258        C259   1.508       .  S
C259        H263   1.111       .  S
C259        H264   1.110       .  S
C259        H549   1.110       .  S
H260        C821   1.084   1_545  S
C262        H266   1.110       .  S
C262        H267   1.110       .  S
C262        H268   1.111       .  S
H265        C543   1.110       .  S
C269        C274   1.408       .  A
C269        C554   1.407   1_554  A
C269        H276   1.083       .  S
C270        C271   1.421       .  A
C270        C553   1.407       .  A
C271        C272   1.401       .  A
C271        C278   1.510       .  S
C272        C273   1.404       .  A
C272        H277   1.083       .  S
C273        C558   1.419       .  A
C274        C557   1.419   1_554  A
C274        C275   1.508       .  S
C275        H279   1.111       .  S
C275        H280   1.110       .  S
C275        H281   1.110       .  S
C278        H282   1.110       .  S
C278        H283   1.110       .  S
C278        H284   1.111       .  S
O285        C288   1.270       .  A
O285       Cd290   2.509       .  S
C286        O295   1.263       .  A
C286        O291   1.268   1_556  A
C286        C432   1.463       .  S
O287        C293   1.266       .  A
C288        O296   1.262       .  A
C288        C353   1.472       .  S
C289        O294   1.263   1_554  A
C289        C554   1.492   1_554  S
Cd290       O296   2.439       .  S
Cd290       O292   2.495       .  S
C293        O297   1.264       .  A
C293       C1106   1.484   1_545  S
O298        C301   1.269       .  A
O298       Cd303   2.467       .  S
C299        O308   1.263       .  A
C299        O304   1.271       .  A
C299        C315   1.468       .  S
O300        C306   1.270       .  A
O300       Cd303   2.485       .  S
C301        O309   1.265       .  A
C301        C364   1.461       .  S
C302        O307   1.268       .  A
C302        O305   1.267   1_556  A
C302        C557   1.492       .  S
Cd303       O310   2.416       .  S
Cd303       O309   2.432       .  S
Cd303       O307   2.433       .  S
Cd303       O305   2.473   1_556  S
C306        O310   1.261       .  A
C306       C1090   1.486   1_545  S
O311        C314   1.263       .  A
O311       Cd316   2.471       .  S
C312        O321   1.266   1_545  A
C312        O885   1.266   1_545  A
C312        C390   1.462       .  S
O313        C319   1.266       .  A
O313       Cd316   2.452       .  S
C314        O322   1.261       .  A
C314        C338   1.468       .  S
C315        O888   1.263   1_545  A
C315        O318   1.261       .  A
Cd316       O323   2.459       .  S
Cd316       O322   2.505       .  S
Cd316       O889   2.460       .  S
Cd316       O317   2.448       .  S
Cd316       O320   2.469       .  S
Cd316       O886   2.504       .  S
O317        C880   1.266       .  A
O318       Cd884   2.504   1_545  S
C319        O323   1.266       .  A
C319        C418   1.463       .  S
O320        C883   1.263       .  A
O321       Cd884   2.460       .  S
O324        C327   1.270       .  A
O324       Cd329   2.510       .  S
C325        O334   1.263       .  A
C325        O330   1.268   1_556  A
C325        C429   1.463       .  S
O326        C332   1.266       .  A
C327        O335   1.262       .  A
C327        C358   1.472       .  S
C328        O333   1.262   1_554  A
C328        C509   1.490       .  S
Cd329       O335   2.441       .  S
Cd329       O331   2.500       .  S
C332        O336   1.264       .  A
C332        C541   1.483       .  S
O337        C340   1.269       .  A
O337       Cd342   2.468       .  S
C338        O347   1.263       .  A
C338        O343   1.270       .  A
O339        C345   1.270       .  A
O339       Cd342   2.483       .  S
C340        O348   1.264       .  A
C340        C371   1.461       .  S
C341        O346   1.268       .  A
C341        O344   1.267   1_556  A
C341        C506   1.491       .  S
Cd342       O349   2.418       .  S
Cd342       O348   2.431       .  S
Cd342       O346   2.429       .  S
Cd342       O344   2.479   1_556  S
C345        O349   1.261       .  A
C345        C525   1.485       .  S
O350        C921   1.263       .  A
O350       Cd355   2.478       .  S
C351        O360   1.265       .  A
C351        O356   1.266       .  A
C351        C403   1.463       .  S
O352        C358   1.263       .  A
O352       Cd355   2.479   1_455  S
C353        O918   1.263   1_545  A
C353        O361   1.261       .  A
C354        O927   1.266   1_545  A
C354        O357   1.266   1_545  A
C354        C377   1.463       .  S
Cd355       O362   2.516   1_655  S
Cd355       O929   2.516       .  S
Cd355       O360   2.466       .  S
Cd355       O356   2.449       .  S
Cd355       O359   2.447   1_655  S
Cd355       O925   2.467   1_655  S
O357       Cd923   2.467   1_455  S
C358        O362   1.262       .  A
O359        C922   1.266       .  A
O361       Cd923   2.516   1_545  S
O363        C366   1.263       .  A
O363       Cd368   2.470       .  S
C364        O373   1.265       .  A
C364        O369   1.266       .  A
O365        C371   1.266       .  A
O365       Cd368   2.446       .  S
C366        O374   1.261       .  A
C366        C416   1.468       .  S
C367        O372   1.263       .  A
C367        O370   1.261       .  A
C367        C392   1.468       .  S
Cd368       O375   2.456       .  S
Cd368       O374   2.507       .  S
Cd368       O373   2.457       .  S
Cd368       O369   2.448       .  S
Cd368       O372   2.474       .  S
Cd368       O370   2.503       .  S
C371        O375   1.266       .  A
O376        C379   1.270       .  A
O376       Cd381   2.504       .  S
C377        O386   1.264       .  A
C377        O382   1.269       .  A
O378        C384   1.268       .  A
O378       Cd381   2.473       .  S
C379        O387   1.262       .  A
C379        C431   1.471       .  S
C380        O385   1.266       .  A
C380        O383   1.268       .  A
C380        C490   1.489       .  S
Cd381       O388   2.422       .  S
Cd381       O387   2.439       .  S
Cd381       O386   2.432       .  S
Cd381       O382   2.480       .  S
Cd381       O385   2.422       .  S
Cd381       O383   2.490       .  S
C384        O388   1.261       .  A
C384        C474   1.483       .  S
O389        C392   1.270       .  A
O389       Cd394   2.496       .  S
C390        O399   1.264       .  A
C390        O395   1.268       .  A
O391        C397   1.265       .  A
O391       Cd394   2.427       .  S
C392        O400   1.262       .  A
C393        O398   1.267       .  A
C393        O396   1.264       .  A
C393        C458   1.486       .  S
Cd394       O401   2.485       .  S
Cd394       O400   2.436       .  S
Cd394       O399   2.438       .  S
Cd394       O395   2.472       .  S
Cd394       O398   2.479       .  S
Cd394       O396   2.425       .  S
C397        O401   1.269       .  A
C397        C493   1.489       .  S
O402        C405   1.271       .  A
O402       Cd407   2.508       .  S
C403        O412   1.264       .  A
C403        O408   1.269       .  A
O404        C410   1.269       .  A
O404       Cd407   2.477       .  S
C405        O413   1.262       .  A
C405        C436   1.471       .  S
C406        O411   1.267       .  A
C406        O409   1.268       .  A
C406        C442   1.486       .  S
Cd407       O414   2.416       .  S
Cd407       O413   2.433       .  S
Cd407       O412   2.431       .  S
Cd407       O408   2.475       .  S
Cd407       O411   2.428       .  S
Cd407       O409   2.485       .  S
C410        O414   1.261       .  A
C410        C477   1.484       .  S
O415        C418   1.268       .  A
O415       Cd420   2.469       .  S
C416        O425   1.262       .  A
C416        O421   1.270       .  A
O417        C423   1.268       .  A
O417       Cd420   2.481       .  S
C418        O426   1.265       .  A
C419        O424   1.265       .  A
C419        O422   1.269       .  A
C419        C445   1.485       .  S
Cd420       O427   2.421       .  S
Cd420       O426   2.440       .  S
Cd420       O425   2.430       .  S
Cd420       O421   2.501       .  S
Cd420       O424   2.429       .  S
Cd420       O422   2.483       .  S
C423        O427   1.264       .  A
C423        C461   1.486       .  S
O428        C431   1.263       .  A
O428       Cd433   2.478   1_455  S
C429        O438   1.266       .  A
C429        O434   1.266       .  A
O430        C436   1.263       .  A
O430       Cd433   2.474       .  S
C431        O439   1.261       .  A
C432        O437   1.266       .  A
C432        O435   1.266       .  A
Cd433       O440   2.515       .  S
Cd433       O439   2.512   1_655  S
Cd433       O438   2.467   1_655  S
Cd433       O434   2.446   1_655  S
Cd433       O437   2.448       .  S
Cd433       O435   2.467       .  S
C436        O440   1.261       .  A
C441        C442   1.403       .  A
C441        C446   1.400       .  A
C441        H448   1.084       .  S
C442        C443   1.417       .  A
C443        C444   1.408       .  A
C443        C450   1.507       .  S
C444        C445   1.406       .  A
C444        H449   1.084       .  S
C445        C446   1.416       .  A
C446        C447   1.509       .  S
C447        H451   1.111       .  S
C447        H452   1.109       .  S
C447        H453   1.111       .  S
C450        H454   1.110       .  S
C450        H455   1.109       .  S
C450        H456   1.111       .  S
C457        C458   1.407       .  A
C457        C462   1.403       .  A
C457        H464   1.084       .  S
C458        C459   1.416       .  A
C459        C460   1.403       .  A
C459        C466   1.508       .  S
C460        C461   1.407       .  A
C460        H465   1.084       .  S
C461        C462   1.416       .  A
C462        C463   1.508       .  S
C463        H467   1.111       .  S
C463        H468   1.110       .  S
C463        H469   1.110       .  S
C466        H470   1.110       .  S
C466        H471   1.110       .  S
C466        H472   1.111       .  S
C473        C474   1.404       .  A
C473        C478   1.402       .  A
C473        H480   1.084       .  S
C474        C475   1.418   1_455  A
C475        C476   1.403       .  A
C475        C482   1.509       .  S
C476        C477   1.404       .  A
C476        H481   1.084       .  S
C477        C478   1.419   1_655  A
C478        C479   1.509       .  S
C479        H483   1.111       .  S
C479        H484   1.109       .  S
C479        H485   1.110       .  S
C482        H486   1.108       .  S
C482        H487   1.110       .  S
C482        H488   1.111       .  S
C489        C490   1.404       .  A
C489        C494   1.401       .  A
C489        H496   1.083       .  S
C490        C491   1.417       .  A
C491        C492   1.408       .  A
C491        C498   1.507       .  S
C492        C493   1.407       .  A
C492        H497   1.083       .  S
C493        C494   1.418       .  A
C494        C495   1.510       .  S
C495        H499   1.111       .  S
C495        H500   1.111       .  S
C495        H501   1.109       .  S
C498        H502   1.110       .  S
C498        H503   1.110       .  S
C498        H504   1.111       .  S
C505        C506   1.404       .  A
C505        C510   1.400       .  A
C505        H512   1.083       .  S
C507        C508   1.409       .  A
C507        C514   1.507       .  S
C508        H513   1.083       .  S
C509        C510   1.420   1_554  A
C510        C511   1.510       .  S
C511        H515   1.111       .  S
C511        H516   1.110       .  S
C511        H517   1.111       .  S
C514        H518   1.110       .  S
C514        H519   1.110       .  S
C514        H520   1.111       .  S
C521        C522   1.404       .  A
C521        C526   1.403       .  A
C521        H528   1.084       .  S
C522        C874   1.486       .  S
C522        C523   1.419       .  A
C523        C524   1.403       .  A
C523       C1098   1.509       .  S
C524        C525   1.403       .  A
C524        H529   1.084       .  S
C525        C526   1.419       .  A
C526        C527   1.509       .  S
C527        H531   1.111       .  S
C527        H532   1.110       .  S
C527        H533   1.108       .  S
C530       C1091   1.509   1_545  S
C530        H534   1.110       .  S
C530        H535   1.109       .  S
C530        H536   1.111       .  S
C537        C538   1.406   1_455  A
C537        C542   1.402       .  A
C537       H1112   1.084       .  S
C538        C861   1.484       .  S
C538        C539   1.416       .  A
C539        C540   1.402       .  A
C539        C546   1.508       .  S
C540        C541   1.406   1_655  A
C540        H545   1.084       .  S
C541        C542   1.416       .  A
C542        C543   1.508       .  S
C543        H547   1.111       .  S
C543        H548   1.110       .  S
H544       C1105   1.084   1_545  S
C546        H550   1.110       .  S
C546        H551   1.110       .  S
C546        H552   1.111       .  S
C553        C558   1.408       .  A
C553        H560   1.083       .  S
C554        C555   1.421       .  A
C555        C556   1.401       .  A
C555        C562   1.510       .  S
C556        C557   1.404       .  A
C556        H561   1.083       .  S
C558        C559   1.508       .  S
C559        H563   1.111       .  S
C559        H564   1.110       .  S
C559        H565   1.110       .  S
C562        H566   1.110       .  S
C562        H567   1.110       .  S
C562        H568   1.111       .  S
O569        C572   1.270       .  A
O569       Cd574   2.509       .  S
C570        O579   1.263       .  A
C570        O575   1.268       .  A
C570        C716   1.463       .  S
O571        C577   1.266       .  A
O571       Cd858   2.466       .  S
C572        O580   1.262       .  A
C572        C637   1.472       .  S
C573        O578   1.263       .  A
C573        O860   1.270       .  A
C573        C838   1.492       .  S
Cd574       O855   2.466   1_554  S
Cd574       O865   2.425   1_554  S
Cd574       O580   2.439       .  S
Cd574       O863   2.433   1_554  S
Cd574       O859   2.482       .  S
Cd574       O862   2.415   1_554  S
Cd574       O576   2.495       .  S
O575       Cd858   2.482       .  S
O576        C857   1.270       .  A
C577        O581   1.264       .  A
O578       Cd858   2.415       .  S
O579       Cd858   2.433       .  S
O581       Cd858   2.425       .  S
O582        C585   1.269       .  A
O582       Cd587   2.467       .  S
C583        O592   1.263       .  A
C583        O588   1.271       .  A
C583        C599   1.468       .  S
O584        C590   1.270       .  A
O584       Cd587   2.485       .  S
C585        O593   1.265       .  A
C585        C648   1.461       .  S
C586        O591   1.268       .  A
C586        O589   1.267       .  A
C586        C841   1.492       .  S
Cd587       O594   2.416       .  S
Cd587       O593   2.432       .  S
Cd587       O876   2.428       .  S
Cd587       O872   2.495       .  S
Cd587       O591   2.433       .  S
Cd587       O589   2.473       .  S
O588       Cd871   2.495   1_554  S
C590        O594   1.261       .  A
O592       Cd871   2.428   1_554  S
O595        C598   1.263       .  A
O595       Cd600   2.471       .  S
C596        O605   1.266       .  A
C596        C674   1.462       .  S
O597        C603   1.266       .  A
O597       Cd600   2.452       .  S
C598        O606   1.261       .  A
C598        C622   1.468       .  S
C599        O602   1.261       .  A
Cd600       O607   2.459       .  S
Cd600       O606   2.505       .  S
Cd600       O601   2.448       .  S
Cd600       O604   2.469       .  S
C603        O607   1.266       .  A
C603        C702   1.463       .  S
O608        C611   1.270       .  A
O608       Cd613   2.510       .  S
C609        O618   1.263       .  A
C609        O614   1.268       .  A
C609        C713   1.463       .  S
O610        C616   1.266       .  A
O610       Cd897   2.465       .  S
C611        O619   1.262       .  A
C611        C642   1.472       .  S
C612        O617   1.262       .  A
C612        O899   1.270       .  A
C612        C793   1.490       .  S
Cd613       O894   2.465   1_554  S
Cd613       O904   2.426   1_554  S
Cd613       O619   2.441       .  S
Cd613       O902   2.433   1_554  S
Cd613       O898   2.482       .  S
Cd613       O901   2.410   1_554  S
Cd613       O615   2.500       .  S
O614       Cd897   2.482       .  S
O615        C896   1.270       .  A
C616        O620   1.264       .  A
C616        C825   1.483       .  S
O617       Cd897   2.410       .  S
O618       Cd897   2.433       .  S
O620       Cd897   2.426       .  S
O621        C624   1.269       .  A
O621       Cd626   2.468       .  S
C622        O631   1.263       .  A
C622        O627   1.270       .  A
O623        C629   1.270       .  A
O623       Cd626   2.483       .  S
C624        O632   1.264       .  A
C624        C655   1.461       .  S
C625        O630   1.268       .  A
C625        O628   1.267       .  A
C625        C790   1.491       .  S
Cd626       O633   2.418       .  S
Cd626       O632   2.431       .  S
Cd626       O915   2.431       .  S
Cd626       O911   2.496       .  S
Cd626       O630   2.429       .  S
Cd626       O628   2.479       .  S
O627       Cd910   2.496   1_554  S
C629        O633   1.261       .  A
C629        C809   1.485       .  S
O631       Cd910   2.431   1_554  S
O634       Cd639   2.478       .  S
C635        O644   1.265       .  A
C635        O640   1.266       .  A
C635        C687   1.463       .  S
O636        C642   1.263       .  A
O636       Cd639   2.479   1_455  S
C637        O645   1.261       .  A
C638        O641   1.266       .  A
C638        C661   1.463       .  S
Cd639       O646   2.516   1_655  S
Cd639       O644   2.466       .  S
Cd639       O640   2.449       .  S
Cd639       O643   2.447   1_655  S
C642        O646   1.262       .  A
O647        C650   1.263       .  A
O647       Cd652   2.470       .  S
C648        O657   1.265       .  A
C648        O653   1.266       .  A
O649        C655   1.266       .  A
O649       Cd652   2.446       .  S
C650        O658   1.261       .  A
C650        C700   1.468       .  S
C651        O656   1.263       .  A
C651        O654   1.261       .  A
C651        C676   1.468       .  S
Cd652       O659   2.456       .  S
Cd652       O658   2.507       .  S
Cd652       O657   2.457       .  S
Cd652       O653   2.448       .  S
Cd652       O656   2.474       .  S
Cd652       O654   2.503       .  S
C655        O659   1.266       .  A
O660        C663   1.270       .  A
O660       Cd665   2.504       .  S
C661        O670   1.264       .  A
C661        O666   1.269       .  A
O662        C668   1.268       .  A
O662       Cd665   2.473       .  S
C663        O671   1.262       .  A
C663        C715   1.471       .  S
C664        O669   1.266       .  A
C664        O667   1.268       .  A
C664        C774   1.489       .  S
Cd665       O672   2.422       .  S
Cd665       O671   2.439       .  S
Cd665       O670   2.432       .  S
Cd665       O666   2.480       .  S
Cd665       O669   2.422       .  S
Cd665       O667   2.490       .  S
C668        O672   1.261       .  A
C668        C758   1.483       .  S
O673        C676   1.270       .  A
O673       Cd678   2.496       .  S
C674        O683   1.264       .  A
C674        O679   1.268       .  A
O675        C681   1.265       .  A
O675       Cd678   2.427       .  S
C676        O684   1.262       .  A
C677        O682   1.267       .  A
C677        O680   1.264       .  A
C677        C742   1.486       .  S
Cd678       O685   2.485       .  S
Cd678       O684   2.436       .  S
Cd678       O683   2.438       .  S
Cd678       O679   2.472       .  S
Cd678       O682   2.479       .  S
Cd678       O680   2.425       .  S
C681        O685   1.269       .  A
C681        C777   1.489       .  S
O686        C689   1.271       .  A
O686       Cd691   2.508       .  S
C687        O696   1.264       .  A
C687        O692   1.269       .  A
O688        C694   1.269       .  A
O688       Cd691   2.477       .  S
C689        O697   1.262       .  A
C689        C720   1.471       .  S
C690        O695   1.267       .  A
C690        O693   1.268       .  A
C690        C726   1.486       .  S
Cd691       O698   2.416       .  S
Cd691       O697   2.433       .  S
Cd691       O696   2.431       .  S
Cd691       O692   2.475       .  S
Cd691       O695   2.428       .  S
Cd691       O693   2.485       .  S
C694        O698   1.261       .  A
C694        C761   1.484       .  S
O699        C702   1.268       .  A
O699       Cd704   2.469       .  S
C700        O709   1.262       .  A
C700        O705   1.270       .  A
O701        C707   1.268       .  A
O701       Cd704   2.481       .  S
C702        O710   1.265       .  A
C703        O708   1.265       .  A
C703        O706   1.269       .  A
C703        C729   1.485       .  S
Cd704       O711   2.421       .  S
Cd704       O710   2.440       .  S
Cd704       O709   2.430       .  S
Cd704       O705   2.501       .  S
Cd704       O708   2.429       .  S
Cd704       O706   2.483       .  S
C707        O711   1.264       .  A
C707        C745   1.486       .  S
O712        C715   1.263       .  A
O712       Cd717   2.478   1_455  S
C713        O722   1.266       .  A
C713        O718   1.266       .  A
O714        C720   1.263       .  A
O714       Cd717   2.474       .  S
C715        O723   1.261       .  A
C716        O721   1.266       .  A
C716        O719   1.266       .  A
Cd717       O724   2.515       .  S
Cd717       O723   2.512   1_655  S
Cd717       O722   2.467   1_655  S
Cd717       O718   2.446   1_655  S
Cd717       O721   2.448       .  S
Cd717       O719   2.467       .  S
C720        O724   1.261       .  A
C725        C726   1.403       .  A
C725        C730   1.400       .  A
C725        H732   1.084       .  S
C726        C727   1.417       .  A
C727        C728   1.408       .  A
C727        C734   1.507       .  S
C728        C729   1.406       .  A
C728        H733   1.084       .  S
C729        C730   1.416       .  A
C730        C731   1.509       .  S
C731        H735   1.111       .  S
C731        H736   1.109       .  S
C731        H737   1.111       .  S
C734        H738   1.110       .  S
C734        H739   1.109       .  S
C734        H740   1.111       .  S
C741        C742   1.407       .  A
C741        C746   1.403       .  A
C741        H748   1.084       .  S
C742        C743   1.416       .  A
C743        C744   1.403       .  A
C743        C750   1.508       .  S
C744        C745   1.407       .  A
C744        H749   1.084       .  S
C745        C746   1.416       .  A
C746        C747   1.508       .  S
C747        H751   1.111       .  S
C747        H752   1.110       .  S
C747        H753   1.110       .  S
C750        H754   1.110       .  S
C750        H755   1.110       .  S
C750        H756   1.111       .  S
C757        C758   1.404       .  A
C757        C762   1.402       .  A
C757        H764   1.084       .  S
C758        C759   1.418   1_455  A
C759        C760   1.403       .  A
C759        C766   1.509       .  S
C760        C761   1.404       .  A
C760        H765   1.084       .  S
C761        C762   1.419   1_655  A
C762        C763   1.509       .  S
C763        H767   1.111       .  S
C763        H768   1.109       .  S
C763        H769   1.110       .  S
C766        H770   1.108       .  S
C766        H771   1.110       .  S
C766        H772   1.111       .  S
C773        C774   1.404       .  A
C773        C778   1.401       .  A
C773        H780   1.083       .  S
C774        C775   1.417       .  A
C775        C776   1.408       .  A
C775        C782   1.507       .  S
C776        C777   1.407       .  A
C776        H781   1.083       .  S
C777        C778   1.418       .  A
C778        C779   1.510       .  S
C779        H783   1.111       .  S
C779        H784   1.111       .  S
C779        H785   1.109       .  S
C782        H786   1.110       .  S
C782        H787   1.110       .  S
C782        H788   1.111       .  S
C789        C790   1.404       .  A
C789        C794   1.400       .  A
C789        H796   1.083       .  S
C790       C1075   1.419       .  A
C791       C1074   1.419   1_554  A
C791        C792   1.409       .  A
C791        C798   1.507       .  S
C792       C1077   1.406       .  A
C792        H797   1.083       .  S
C793       C1076   1.406       .  A
C793        C794   1.420       .  A
C794        C795   1.510       .  S
C795        H799   1.111       .  S
C795        H800   1.110       .  S
C795        H801   1.111       .  S
C798        H802   1.110       .  S
C798        H803   1.110       .  S
C798        H804   1.111       .  S
C805        C806   1.404       .  A
C805        C810   1.403       .  A
C805        H812   1.084       .  S
C806        C807   1.419       .  A
C807        C808   1.403       .  A
C808        C809   1.403       .  A
C808        H813   1.084       .  S
C809        C810   1.419       .  A
C810        C811   1.509       .  S
C811        H815   1.111       .  S
C811        H816   1.110       .  S
C811        H817   1.108       .  S
C814        H818   1.110       .  S
C814        H819   1.109       .  S
C814        H820   1.111       .  S
C821        C822   1.406   1_455  A
C821        C826   1.402       .  A
C822        C823   1.416       .  A
C823        C824   1.402       .  A
C823        C830   1.508       .  S
C824        C825   1.406   1_655  A
C824        H829   1.084       .  S
C825        C826   1.416       .  A
C826        C827   1.508       .  S
C827        H831   1.111   1_565  S
C827        H832   1.110       .  S
C827       H1117   1.110       .  S
C830        H834   1.110       .  S
C830        H835   1.110       .  S
C830        H836   1.111       .  S
H833       C1111   1.110       .  S
C837       C1122   1.407   1_554  A
C837        C842   1.408       .  A
C837        H844   1.083       .  S
C838       C1121   1.407       .  A
C838        C839   1.421       .  A
C839        C840   1.401       .  A
C839        C846   1.510       .  S
C840        C841   1.404       .  A
C840        H845   1.083       .  S
C841       C1126   1.419       .  A
C842       C1125   1.419   1_554  A
C842        C843   1.508       .  S
C843        H847   1.111       .  S
C843        H848   1.110       .  S
C843        H849   1.110       .  S
C846        H850   1.110       .  S
C846        H851   1.110       .  S
C846        H852   1.111       .  S
O853        C856   1.270       .  A
O853       Cd858   2.509       .  S
C854        O863   1.263       .  A
C854        O859   1.268   1_556  A
C854       C1000   1.463       .  S
O855        C861   1.266       .  A
C856        O864   1.262       .  A
C856        C921   1.472       .  S
C857        O862   1.263   1_554  A
C857       C1122   1.492   1_554  S
Cd858       O864   2.439       .  S
Cd858       O860   2.495       .  S
C861        O865   1.264       .  A
O866        C869   1.269       .  A
O866       Cd871   2.467       .  S
C867        O876   1.263       .  A
C867        O872   1.271       .  A
C867        C883   1.468       .  S
O868        C874   1.270       .  A
O868       Cd871   2.485       .  S
C869        O877   1.265       .  A
C869        C932   1.461       .  S
C870        O875   1.268       .  A
C870        O873   1.267   1_556  A
C870       C1125   1.492       .  S
Cd871       O878   2.416       .  S
Cd871       O877   2.432       .  S
Cd871       O875   2.433       .  S
Cd871       O873   2.473   1_556  S
C874        O878   1.261       .  A
O879        C882   1.263       .  A
O879       Cd884   2.471       .  S
C880        O889   1.266       .  A
C880        C958   1.462       .  S
O881        C887   1.266       .  A
O881       Cd884   2.452       .  S
C882        O890   1.261       .  A
C882        C906   1.468       .  S
C883        O886   1.261       .  A
Cd884       O891   2.459       .  S
Cd884       O890   2.505       .  S
Cd884       O885   2.448       .  S
Cd884       O888   2.469       .  S
C887        O891   1.266       .  A
C887        C986   1.463       .  S
O892        C895   1.270       .  A
O892       Cd897   2.510       .  S
C893        O902   1.263       .  A
C893        O898   1.268   1_556  A
C893        C997   1.463       .  S
O894        C900   1.266       .  A
C895        O903   1.262       .  A
C895        C926   1.472       .  S
C896        O901   1.262   1_554  A
C896       C1077   1.490       .  S
Cd897       O903   2.441       .  S
Cd897       O899   2.500       .  S
C900        O904   1.264       .  A
C900       C1109   1.483       .  S
O905        C908   1.269       .  A
O905       Cd910   2.468       .  S
C906        O915   1.263       .  A
C906        O911   1.270       .  A
O907        C913   1.270       .  A
O907       Cd910   2.483       .  S
C908        O916   1.264       .  A
C908        C939   1.461       .  S
C909        O914   1.268       .  A
C909        O912   1.267   1_556  A
C909       C1074   1.491       .  S
Cd910       O917   2.418       .  S
Cd910       O916   2.431       .  S
Cd910       O914   2.429       .  S
Cd910       O912   2.479   1_556  S
C913        O917   1.261       .  A
C913       C1093   1.485       .  S
O918       Cd923   2.478       .  S
C919        O928   1.265       .  A
C919        O924   1.266       .  A
C919        C971   1.463       .  S
O920        C926   1.263       .  A
O920       Cd923   2.479   1_455  S
C921        O929   1.261       .  A
C922        O925   1.266       .  A
C922        C945   1.463       .  S
Cd923       O930   2.516   1_655  S
Cd923       O928   2.466       .  S
Cd923       O924   2.449       .  S
Cd923       O927   2.447   1_655  S
C926        O930   1.262       .  A
O931        C934   1.263       .  A
O931       Cd936   2.470       .  S
C932        O941   1.265       .  A
C932        O937   1.266       .  A
O933        C939   1.266       .  A
O933       Cd936   2.446       .  S
C934        O942   1.261       .  A
C934        C984   1.468       .  S
C935        O940   1.263       .  A
C935        O938   1.261       .  A
C935        C960   1.468       .  S
Cd936       O943   2.456       .  S
Cd936       O942   2.507       .  S
Cd936       O941   2.457       .  S
Cd936       O937   2.448       .  S
Cd936       O940   2.474       .  S
Cd936       O938   2.503       .  S
C939        O943   1.266       .  A
O944        C947   1.270       .  A
O944       Cd949   2.504       .  S
C945        O954   1.264       .  A
C945        O950   1.269       .  A
O946        C952   1.268       .  A
O946       Cd949   2.473       .  S
C947        O955   1.262       .  A
C947        C999   1.471       .  S
C948        O953   1.266       .  A
C948        O951   1.268       .  A
C948       C1058   1.489       .  S
Cd949       O956   2.422       .  S
Cd949       O955   2.439       .  S
Cd949       O954   2.432       .  S
Cd949       O950   2.480       .  S
Cd949       O953   2.422       .  S
Cd949       O951   2.490       .  S
C952        O956   1.261       .  A
C952       C1042   1.483       .  S
O957        C960   1.270       .  A
O957       Cd962   2.496       .  S
C958        O967   1.264       .  A
C958        O963   1.268       .  A
O959        C965   1.265       .  A
O959       Cd962   2.427       .  S
C960        O968   1.262       .  A
C961        O966   1.267       .  A
C961        O964   1.264       .  A
C961       C1026   1.486       .  S
Cd962       O969   2.485       .  S
Cd962       O968   2.436       .  S
Cd962       O967   2.438       .  S
Cd962       O963   2.472       .  S
Cd962       O966   2.479       .  S
Cd962       O964   2.425       .  S
C965        O969   1.269       .  A
C965       C1061   1.489       .  S
O970        C973   1.271       .  A
O970       Cd975   2.508       .  S
C971        O980   1.264       .  A
C971        O976   1.269       .  A
O972        C978   1.269       .  A
O972       Cd975   2.477       .  S
C973        O981   1.262       .  A
C973       C1004   1.471       .  S
C974        O979   1.267       .  A
C974        O977   1.268       .  A
C974       C1010   1.486       .  S
Cd975       O982   2.416       .  S
Cd975       O981   2.433       .  S
Cd975       O980   2.431       .  S
Cd975       O976   2.475       .  S
Cd975       O979   2.428       .  S
Cd975       O977   2.485       .  S
C978        O982   1.261       .  A
C978       C1045   1.484       .  S
O983        C986   1.268       .  A
O983       Cd988   2.469       .  S
C984        O993   1.262       .  A
C984        O989   1.270       .  A
O985        C991   1.268       .  A
O985       Cd988   2.481       .  S
C986        O994   1.265       .  A
C987        O992   1.265       .  A
C987        O990   1.269       .  A
C987       C1013   1.485       .  S
Cd988       O995   2.421       .  S
Cd988       O994   2.440       .  S
Cd988       O993   2.430       .  S
Cd988       O989   2.501       .  S
Cd988       O992   2.429       .  S
Cd988       O990   2.483       .  S
C991        O995   1.264       .  A
C991       C1029   1.486       .  S
O996        C999   1.263       .  A
O996      Cd1001   2.478   1_455  S
C997       O1006   1.266       .  A
C997       O1002   1.266       .  A
O998       C1004   1.263       .  A
O998      Cd1001   2.474       .  S
C999       O1007   1.261       .  A
C1000      O1005   1.266       .  A
C1000      O1003   1.266       .  A
Cd1001     O1008   2.515       .  S
Cd1001     O1007   2.512   1_655  S
Cd1001     O1006   2.467   1_655  S
Cd1001     O1002   2.446   1_655  S
Cd1001     O1005   2.448       .  S
Cd1001     O1003   2.467       .  S
C1004      O1008   1.261       .  A
C1009      C1010   1.403       .  A
C1009      C1014   1.400       .  A
C1009      H1016   1.084       .  S
C1010      C1011   1.417       .  A
C1011      C1012   1.408       .  A
C1011      C1018   1.507       .  S
C1012      C1013   1.406       .  A
C1012      H1017   1.084       .  S
C1013      C1014   1.416       .  A
C1014      C1015   1.509       .  S
C1015      H1019   1.111       .  S
C1015      H1020   1.109       .  S
C1015      H1021   1.111       .  S
C1018      H1022   1.110       .  S
C1018      H1023   1.109       .  S
C1018      H1024   1.111       .  S
C1025      C1026   1.407       .  A
C1025      C1030   1.403       .  A
C1025      H1032   1.084       .  S
C1026      C1027   1.416       .  A
C1027      C1028   1.403       .  A
C1027      C1034   1.508       .  S
C1028      C1029   1.407       .  A
C1028      H1033   1.084       .  S
C1029      C1030   1.416       .  A
C1030      C1031   1.508       .  S
C1031      H1035   1.111       .  S
C1031      H1036   1.110       .  S
C1031      H1037   1.110       .  S
C1034      H1038   1.110       .  S
C1034      H1039   1.110       .  S
C1034      H1040   1.111       .  S
C1041      C1042   1.404       .  A
C1041      C1046   1.402       .  A
C1041      H1048   1.084       .  S
C1042      C1043   1.418   1_455  A
C1043      C1044   1.403       .  A
C1043      C1050   1.509       .  S
C1044      C1045   1.404       .  A
C1044      H1049   1.084       .  S
C1045      C1046   1.419   1_655  A
C1046      C1047   1.509       .  S
C1047      H1051   1.111       .  S
C1047      H1052   1.109       .  S
C1047      H1053   1.110       .  S
C1050      H1054   1.108       .  S
C1050      H1055   1.110       .  S
C1050      H1056   1.111       .  S
C1057      C1058   1.404       .  A
C1057      C1062   1.401       .  A
C1057      H1064   1.083       .  S
C1058      C1059   1.417       .  A
C1059      C1060   1.408       .  A
C1059      C1066   1.507       .  S
C1060      C1061   1.407       .  A
C1060      H1065   1.083       .  S
C1061      C1062   1.418       .  A
C1062      C1063   1.510       .  S
C1063      H1067   1.111       .  S
C1063      H1068   1.111       .  S
C1063      H1069   1.109       .  S
C1066      H1070   1.110       .  S
C1066      H1071   1.110       .  S
C1066      H1072   1.111       .  S
C1073      C1074   1.404       .  A
C1073      C1078   1.400       .  A
C1073      H1080   1.083       .  S
C1075      C1076   1.409       .  A
C1075      C1082   1.507       .  S
C1076      H1081   1.083       .  S
C1077      C1078   1.420   1_554  A
C1078      C1079   1.510       .  S
C1079      H1083   1.111       .  S
C1079      H1084   1.110       .  S
C1079      H1085   1.111       .  S
C1082      H1086   1.110       .  S
C1082      H1087   1.110       .  S
C1082      H1088   1.111       .  S
C1089      C1090   1.404       .  A
C1089      C1094   1.403       .  A
C1089      H1096   1.084       .  S
C1090      C1091   1.419       .  A
C1091      C1092   1.403       .  A
C1092      C1093   1.403       .  A
C1092      H1097   1.084       .  S
C1093      C1094   1.419       .  A
C1094      C1095   1.509       .  S
C1095      H1099   1.111       .  S
C1095      H1100   1.110       .  S
C1095      H1101   1.108       .  S
C1098      H1102   1.110       .  S
C1098      H1103   1.109       .  S
C1098      H1104   1.111       .  S
C1105      C1106   1.406   1_455  A
C1105      C1110   1.402       .  A
C1106      C1107   1.416       .  A
C1107      C1108   1.402       .  A
C1107      C1114   1.508       .  S
C1108      C1109   1.406   1_655  A
C1108      H1113   1.084       .  S
C1109      C1110   1.416       .  A
C1110      C1111   1.508       .  S
C1111      H1115   1.111   1_565  S
C1111      H1116   1.110       .  S
C1114      H1118   1.110       .  S
C1114      H1119   1.110       .  S
C1114      H1120   1.111       .  S
C1121      C1126   1.408       .  A
C1121      H1128   1.083       .  S
C1122      C1123   1.421       .  A
C1123      C1124   1.401       .  A
C1123      C1130   1.510       .  S
C1124      C1125   1.404       .  A
C1124      H1129   1.083       .  S
C1126      C1127   1.508       .  S
C1127      H1131   1.111       .  S
C1127      H1132   1.110       .  S
C1127      H1133   1.110       .  S
C1130      H1134   1.110       .  S
C1130      H1135   1.110       .  S
C1130      H1136   1.111       .  S
