geometry optimzed in LAMMPS
_audit_creation_date              2020-11-30 
_audit_creation_method            'lammps2cif' 
_symmetry_space_group_name_H-M    'P1' 
_symmetry_Int_Tables_number       1 
_symmetry_cell_setting            triclinic 
loop_ 
_symmetry_equiv_pos_as_xyz 
  x,y,z 
_cell_length_a                    53.08955182643802 
_cell_length_b                    53.16641357658395 
_cell_length_c                    26.89505961397592 
_cell_angle_alpha                 90.19704870910606 
_cell_angle_beta                  89.84199991623116 
_cell_angle_gamma                 90.01906132450452 
loop_ 
_atom_site_label 
_atom_site_type_symbol 
_atom_site_fract_x 
_atom_site_fract_y 
_atom_site_fract_z 
_atom_site_charge 
N1          N  0.29060777  0.31445633  0.57656262    -0.26760
N2          N  0.27634028  0.33059249  0.60137708    -0.34620
C3          C  0.27954210  0.32692901  0.65043117     0.01580
C4          C  0.29674587  0.30767064  0.65666549     0.07600
C5          C  0.30338673  0.30021288  0.60911299    -0.05500
H6          H  0.27043175  0.33781000  0.67938935     0.08270
H7          H  0.31660252  0.28557885  0.59892743     0.09470
Cu8        Cu  0.25424391  0.35771287  0.56736157     0.44170
Cu9        Cu  0.29230219  0.31263896  0.49965430     0.41990
Cu10       Cu  0.25509697  0.35830212  0.43258075     0.43880
N11         N  0.23577344  0.38440476  0.52473777    -0.34150
N12         N  0.23612518  0.38461624  0.47555023    -0.28400
C13         C  0.22332959  0.40481960  0.45938992    -0.04500
C14         C  0.21453367  0.41781806  0.50038067     0.07710
C15         C  0.22274011  0.40448844  0.54118886     0.01510
H16         H  0.22104763  0.40990784  0.42074751     0.09160
H17         H  0.21990356  0.40927957  0.57991931     0.08240
N18         N  0.27691387  0.33097359  0.39827644    -0.35600
N19         N  0.29061684  0.31437229  0.42278736    -0.27780
C20         C  0.30300511  0.29976364  0.38994225    -0.03020
C21         C  0.29670158  0.30757775  0.34270658     0.05590
C22         C  0.28020105  0.32737948  0.34916610     0.03680
H23         H  0.31584388  0.28479026  0.39972424     0.08790
H24         H  0.27151643  0.33856132  0.32038733     0.07620
N25         N  0.34163498  0.26187845  0.07673198    -0.26760
N26         N  0.35931047  0.24953095  0.10115912    -0.34620
C27         C  0.35619637  0.25344194  0.15021380     0.01580
C28         C  0.33548824  0.26880685  0.15678923     0.07600
C29         C  0.32666925  0.27382059  0.10961030    -0.05500
H30         H  0.36818504  0.24579519  0.17889457     0.08270
H31         H  0.31085726  0.28563712  0.09985826     0.09470
Cu32       Cu  0.38702914  0.22816032  0.06690497     0.44170
Cu33       Cu  0.33933018  0.26289776  0.99986809     0.41990
Cu34       Cu  0.38638079  0.22695430  0.93238464     0.43880
N35         N  0.41298589  0.20849988  0.02425482    -0.34150
N36         N  0.41277135  0.20801899  0.97507209    -0.28400
C37         C  0.43261702  0.19454642  0.95879583    -0.04500
C38         C  0.44577748  0.18616082  0.99971272     0.07710
C39         C  0.43294116  0.19534805  0.04057667     0.01510
H40         H  0.43744489  0.19162414  0.92007171     0.09160
H41         H  0.43805812  0.19318560  0.07927284     0.08240
N42         N  0.35889717  0.24863938  0.89830866    -0.35600
N43         N  0.34181029  0.26181767  0.92298055    -0.27780
C44         C  0.32731449  0.27425747  0.89033783    -0.03020
C45         C  0.33563855  0.26864281  0.84276504     0.05590
C46         C  0.35568192  0.25232065  0.84927798     0.03680
H47         H  0.31210187  0.28681143  0.90054171     0.08790
H48         H  0.36717460  0.24383532  0.82049755     0.07620
N49         N  0.17026025  0.46975913  0.50064521    -0.26760
N50         N  0.19184616  0.48219583  0.50144787    -0.34620
C51         C  0.21094798  0.46556984  0.50139623     0.01580
C52         C  0.20080180  0.44166162  0.50057943     0.07600
C53         C  0.17503130  0.44491361  0.50010867    -0.05500
H54         H  0.23071065  0.47052814  0.50194739     0.08270
H55         H  0.16079552  0.43034708  0.49943939     0.09470
Cu56       Cu  0.19435787  0.52117342  0.50251602     0.44170
Cu57       Cu  0.13530602  0.48700804  0.50022507     0.41990
Cu58       Cu  0.13531865  0.55506418  0.49730932     0.43880
N59         N  0.19175086  0.56013804  0.50149033    -0.34150
N60         N  0.17018121  0.57245929  0.49814836    -0.28400
C61         C  0.17488658  0.59730845  0.49683153    -0.04500
C62         C  0.20058998  0.60069571  0.49998965     0.07710
C63         C  0.21076170  0.57685721  0.50308301     0.01510
H64         H  0.16063175  0.61179600  0.49453964     0.09160
H65         H  0.23049301  0.57200551  0.50585979     0.08240
N66         N  0.10289907  0.53346880  0.49835508    -0.35600
N67         N  0.10287421  0.50861113  0.49944111    -0.27780
C68         C  0.07892789  0.50038295  0.49970462    -0.03020
C69         C  0.06318284  0.52108051  0.49873156     0.05590
C70         C  0.07898072  0.54174166  0.49792652     0.03680
H71         H  0.07344418  0.48078547  0.50040360     0.08790
H72         H  0.07355381  0.56134564  0.49698125     0.07620
N73         N  0.28848754  0.72871126  0.42514205    -0.26760
N74         N  0.27278621  0.71397658  0.40057016    -0.34620
C75         C  0.27592170  0.71777787  0.35154009     0.01580
C76         C  0.29479451  0.73552507  0.34484981     0.07600
C77         C  0.30233305  0.74191557  0.39251467    -0.05500
H78         H  0.26537205  0.70811632  0.32291305     0.08270
H79         H  0.31710911  0.75491846  0.40287919     0.09470
Cu80       Cu  0.24976354  0.68763742  0.43490964     0.44170
Cu81       Cu  0.29043234  0.73038488  0.50175607     0.41990
Cu82       Cu  0.25836585  0.68139462  0.56862692     0.43880
N83         N  0.23351937  0.65939060  0.47742337    -0.34150
N84         N  0.23746310  0.65664184  0.52566882    -0.28400
C85         C  0.22606170  0.63547127  0.54115969    -0.04500
C86         C  0.21421858  0.62460464  0.50087917     0.07710
C87         C  0.21924592  0.64016005  0.46107594     0.01510
H88         H  0.22652920  0.62844586  0.57884662     0.09160
H89         H  0.21368718  0.63728552  0.42280538     0.08240
N90         N  0.27878032  0.70971280  0.60303283    -0.35600
N91         N  0.28980488  0.72813995  0.57838365    -0.27780
C92         C  0.30093439  0.74380660  0.61086090    -0.03020
C93         C  0.29707875  0.73463946  0.65841421     0.05590
C94         C  0.28292067  0.71296180  0.65193022     0.03680
H95         H  0.31124227  0.76054708  0.60047306     0.08790
H96         H  0.27640791  0.70025822  0.68054784     0.07620
N97         N  0.34379643  0.77906588  0.07854609    -0.26760
N98         N  0.36093825  0.79186681  0.10356329    -0.34620
C99         C  0.35703357  0.78855818  0.15251592     0.01580
C100        C  0.33630446  0.77301755  0.15858478     0.07600
C101        C  0.32834743  0.76748780  0.11080336    -0.05500
H102        H  0.36866570  0.79657061  0.18149314     0.08270
H103        H  0.31256609  0.75578515  0.10017362     0.09470
Cu104      Cu  0.38857946  0.81322279  0.06944352     0.44170
Cu105      Cu  0.34267371  0.77738323  0.00185364     0.41990
Cu106      Cu  0.38232394  0.82136136  0.93560689     0.43880
N107        N  0.41328849  0.83400564  0.02634619    -0.34150
N108        N  0.41059867  0.83772764  0.97802060    -0.28400
C109        C  0.42993326  0.85182833  0.96155548    -0.04500
C110        C  0.44545629  0.85699626  0.00139464     0.07710
C111        C  0.43449116  0.84540248  0.04179738     0.01510
H112        H  0.43288039  0.85720065  0.92321633     0.09160
H113        H  0.44148323  0.84507427  0.07953406     0.08240
N114        N  0.35670474  0.79753389  0.90115757    -0.35600
N115        N  0.34354415  0.78038252  0.92533427    -0.27780
C116        C  0.33073108  0.76630281  0.89247370    -0.03020
C117        C  0.33559241  0.77524551  0.84506260     0.05590
C118        C  0.35211598  0.79518235  0.85221808     0.03680
H119        H  0.31897772  0.75048815  0.90253579     0.08790
H120        H  0.36039018  0.80705269  0.82398247     0.07620
N121        N  0.49761266  0.90101490  0.99969897    -0.26760
N122        N  0.50996414  0.87944926  0.00182441    -0.34620
C123        C  0.49325689  0.86043378  0.00278407     0.01580
C124        C  0.46937597  0.87061258  0.00053094     0.07600
C125        C  0.47272734  0.89631654  0.99858181    -0.05500
H126        H  0.49814665  0.84070424  0.00464277     0.08270
H127        H  0.45819959  0.91055948  0.99722832     0.09470
Cu128      Cu  0.54891808  0.87693687  0.00224070     0.44170
Cu129      Cu  0.51512797  0.93578281  0.00009821     0.41990
Cu130      Cu  0.58347138  0.93564321  0.00553214     0.43880
N131        N  0.58788528  0.87921933  0.00214874    -0.34150
N132        N  0.60056219  0.90060432  0.00482832    -0.28400
C133        C  0.62538991  0.89550932  0.00553862    -0.04500
C134        C  0.62832271  0.86975041  0.00254055     0.07710
C135        C  0.60428206  0.85997505  0.00031935     0.01510
H136        H  0.64015613  0.90951824  0.00741523     0.09160
H137        H  0.59906758  0.84033336  0.99812440     0.08240
N138        N  0.56179805  0.96802881  0.00380145    -0.35600
N139        N  0.53691071  0.96805235  0.00193752    -0.27780
C140        C  0.52867781  0.99195304  0.00132337    -0.03020
C141        C  0.54938883  0.00768939  0.00276837     0.05590
C142        C  0.57007471  0.99192968  0.00429556     0.03680
H143        H  0.50906664  0.99740835  0.99987260     0.08790
H144        H  0.58969680  0.99737372  0.00570022     0.07620
N145        N  0.92849088  0.46969465  0.50027856    -0.26760
N146        N  0.90701658  0.48226615  0.49879289    -0.34620
C147        C  0.88777841  0.46581709  0.49817877     0.01580
C148        C  0.89768742  0.44185203  0.49985366     0.07600
C149        C  0.92349595  0.44488577  0.50122645    -0.05500
H150        H  0.86807306  0.47094120  0.49703045     0.08270
H151        H  0.93759309  0.43020609  0.50232574     0.09470
Cu152      Cu  0.90479932  0.52116487  0.49879832     0.44170
Cu153      Cu  0.96345123  0.48697772  0.49980334     0.41990
Cu154      Cu  0.96351782  0.55543890  0.49456167     0.43880
N155        N  0.90707992  0.56006108  0.49869045    -0.34150
N156        N  0.92849918  0.57267068  0.49546300    -0.28400
C157        C  0.92342889  0.59746971  0.49455711    -0.04500
C158        C  0.89764901  0.60045242  0.49807160     0.07710
C159        C  0.88784045  0.57646603  0.50076475     0.01510
H160        H  0.93746942  0.61218500  0.49227981     0.09160
H161        H  0.86817608  0.57129229  0.50338234     0.08240
N162        N  0.99583453  0.53360607  0.49662638    -0.35600
N163        N  0.99579329  0.50874738  0.49841670    -0.27780
C164        C  0.01971120  0.50047791  0.49940034    -0.03020
C165        C  0.03552114  0.52112208  0.49827913     0.05590
C166        C  0.01979020  0.54181167  0.49655289     0.03680
H167        H  0.02513035  0.48088032  0.50090410     0.08790
H168        H  0.02529195  0.56139659  0.49531588     0.07620
N169        N  0.81254117  0.73062758  0.42256031    -0.26760
N170        N  0.82493284  0.71318666  0.39736289    -0.34620
C171        C  0.81990488  0.71576721  0.34864750     0.01580
C172        C  0.80334627  0.73569264  0.34280711     0.07600
C173        C  0.79905271  0.74456512  0.39062444    -0.05500
H174        H  0.82775892  0.70398649  0.31963430     0.08270
H175        H  0.78678005  0.75986633  0.40154602     0.09470
Cu176      Cu  0.84667169  0.68569986  0.43096690     0.44170
Cu177      Cu  0.81382141  0.73408538  0.49939107     0.41990
Cu178      Cu  0.83464061  0.67825067  0.56301575     0.43880
N179        N  0.86292742  0.65784303  0.47407023    -0.34150
N180        N  0.85763176  0.65447002  0.52168773    -0.28400
C181        C  0.86970691  0.63382737  0.53782352    -0.04500
C182        C  0.88345211  0.62403138  0.49867123     0.07710
C183        C  0.87874974  0.63960229  0.45880477     0.01510
H184        H  0.86840446  0.62640806  0.57514625     0.09160
H185        H  0.88550983  0.63730243  0.42107819     0.08240
N186        N  0.81690403  0.70819189  0.59824487    -0.35600
N187        N  0.81196132  0.72966331  0.57588574    -0.27780
C188        C  0.80327970  0.74620523  0.60969984    -0.03020
C189        C  0.80172284  0.73441590  0.65574261     0.05590
C190        C  0.81047502  0.71016662  0.64645153     0.03680
H191        H  0.79848458  0.76542204  0.60091112     0.08790
H192        H  0.81182903  0.69478837  0.67245868     0.07620
N193        N  0.75870488  0.78442612  0.07807373    -0.26760
N194        N  0.74076737  0.79627692  0.10303904    -0.34620
C195        C  0.74309488  0.79105681  0.15170036     0.01580
C196        C  0.76333848  0.77499499  0.15754601     0.07600
C197        C  0.77279568  0.77114079  0.11016581    -0.05500
H198        H  0.73083503  0.79823751  0.18063441     0.08270
H199        H  0.78879175  0.75963957  0.09982790     0.09470
Cu200      Cu  0.71312544  0.81785902  0.06954952     0.44170
Cu201      Cu  0.76246357  0.78612926  0.00131948     0.41990
Cu202      Cu  0.70647252  0.80720479  0.93742294     0.43880
N203        N  0.68548587  0.83462941  0.02666986    -0.34150
N204        N  0.68245176  0.82990517  0.97873716    -0.28400
C205        C  0.66196478  0.84224160  0.96250629    -0.04500
C206        C  0.65190783  0.85554500  0.00198453     0.07710
C207        C  0.66715977  0.85031139  0.04211479     0.01510
H208        H  0.65480225  0.84137822  0.92492015     0.09160
H209        H  0.66459713  0.85663807  0.08006972     0.08240
N210        N  0.73645000  0.78942198  0.90241864    -0.35600
N211        N  0.75791255  0.78429742  0.92481777    -0.27780
C212        C  0.77437900  0.77542522  0.89102425    -0.03020
C213        C  0.76254659  0.77399818  0.84499490     0.05590
C214        C  0.73836669  0.78298670  0.85421133     0.03680
H215        H  0.79355970  0.77036208  0.89979488     0.08790
H216        H  0.72300094  0.78449388  0.82812769     0.07620
N217        N  0.49796984  0.14214119  0.00041168    -0.26760
N218        N  0.51034734  0.16374303  0.99947148    -0.34620
C219        C  0.49360414  0.18272991  0.99907931     0.01580
C220        C  0.46969835  0.17250943  0.99972115     0.07600
C221        C  0.47306087  0.14679189  0.00059340    -0.05500
H222        H  0.49848906  0.20251537  0.99838770     0.08270
H223        H  0.45855396  0.13253219  0.00132925     0.09470
Cu224      Cu  0.54942190  0.16648621  0.99885085     0.44170
Cu225      Cu  0.51530616  0.10730044  0.00144963     0.41990
Cu226      Cu  0.58328145  0.10746306  0.00489063     0.43880
N227        N  0.58849986  0.16385281  0.00033573    -0.34150
N228        N  0.60074537  0.14227459  0.00403939    -0.28400
C229        C  0.62564893  0.14686162  0.00547006    -0.04500
C230        C  0.62919734  0.17249352  0.00203532     0.07710
C231        C  0.60535766  0.18275370  0.99858784     0.01510
H232        H  0.64007732  0.13256041  0.00786800     0.09160
H233        H  0.60060531  0.20246657  0.99535092     0.08240
N234        N  0.56178876  0.07497933  0.00360966    -0.35600
N235        N  0.53690227  0.07493614  0.00236225    -0.27780
C236        C  0.52866227  0.05103080  0.00181589    -0.03020
C237        C  0.54938592  0.03531200  0.00275849     0.05590
C238        C  0.57008392  0.05109002  0.00385776     0.03680
H239        H  0.50903944  0.04555983  0.00085720     0.08790
H240        H  0.58969833  0.04567369  0.00480568     0.07620
N241        N  0.75386139  0.26376061  0.07518044    -0.26760
N242        N  0.74257231  0.24510811  0.09866453    -0.34620
C243        C  0.74793927  0.24674534  0.14740345     0.01580
C244        C  0.76285440  0.26786745  0.15545190     0.07600
C245        C  0.76600626  0.27818709  0.10848725    -0.05500
H246        H  0.74130190  0.23349184  0.17486599     0.08270
H247        H  0.77616923  0.29513435  0.09896689     0.09470
Cu248      Cu  0.71774301  0.22036835  0.06422409     0.44170
Cu249      Cu  0.75398107  0.26773490  0.99861547     0.41990
Cu250      Cu  0.71068307  0.22856339  0.93117956     0.43880
N251        N  0.68887013  0.20424543  0.02282688    -0.34150
N252        N  0.68584026  0.20810283  0.97463440    -0.28400
C253        C  0.66421894  0.19725442  0.95985463    -0.04500
C254        C  0.65330071  0.18586708  0.00056876     0.07710
C255        C  0.66935236  0.19055343  0.03986619     0.01510
H256        H  0.65693251  0.19778088  0.92234739     0.09160
H257        H  0.66662823  0.18517320  0.07826194     0.08240
N258        N  0.73788381  0.25047668  0.89699738    -0.35600
N259        N  0.75394600  0.26474739  0.92181322    -0.27780
C260        C  0.76922221  0.27646446  0.88931853    -0.03020
C261        C  0.76225899  0.26932706  0.84185617     0.05590
C262        C  0.74231428  0.25290681  0.84800344     0.03680
H263        H  0.78393274  0.28959410  0.89942812     0.08790
H264        H  0.73167916  0.24360193  0.81902267     0.07620
N265        N  0.81036165  0.31273227  0.42356695    -0.26760
N266        N  0.81890896  0.33267700  0.39973196    -0.34620
C267        C  0.81373300  0.33019966  0.35106844     0.01580
C268        C  0.80161074  0.30738578  0.34359845     0.07600
C269        C  0.79996064  0.29680294  0.39057460    -0.05500
H270        H  0.81821914  0.34418016  0.32329758     0.08270
H271        H  0.79164383  0.27890101  0.40027642     0.09470
Cu272      Cu  0.83805320  0.36183132  0.43427809     0.44170
Cu273      Cu  0.81124332  0.30921367  0.50023720     0.41990
Cu274      Cu  0.84552661  0.35725571  0.56786994     0.43880
N275        N  0.85933138  0.38671396  0.47619918    -0.34150
N276        N  0.86269384  0.38465338  0.52473868    -0.28400
C277        C  0.87750743  0.40361062  0.54042241    -0.04500
C278        C  0.88361440  0.41820809  0.49979097     0.07710
C279        C  0.87173372  0.40712941  0.45976664     0.01510
H280        H  0.88277520  0.40693443  0.57871718     0.09160
H281        H  0.87185913  0.41355040  0.42164348     0.08240
N282        N  0.82398010  0.32962946  0.60184588    -0.35600
N283        N  0.81121286  0.31230193  0.57706307    -0.27780
C284        C  0.79815738  0.29815322  0.60951347    -0.03020
C285        C  0.80312497  0.30692428  0.65684894     0.05590
C286        C  0.81955690  0.32682981  0.65079303     0.03680
H287        H  0.78585904  0.28274639  0.59938096     0.08790
H288        H  0.82735408  0.33866953  0.67970887     0.07620
C289        C  0.77291855  0.27767655  0.20388849    -0.04810
C290        C  0.79739935  0.28831485  0.20657156    -0.01930
C291        C  0.80664947  0.29805827  0.25192253     0.03060
C292        C  0.79184158  0.29693466  0.29568539    -0.04810
C293        C  0.76755391  0.28601430  0.29329830    -0.01920
C294        C  0.75807053  0.27671299  0.24777786     0.03060
C295        C  0.81374067  0.28863767  0.16321228     0.37710
C296        C  0.75166035  0.28508880  0.33728554     0.37700
C297        C  0.73246755  0.26715170  0.24638799     0.36120
C298        C  0.83189596  0.30855691  0.25345338     0.36120
N299        N  0.71205222  0.25950478  0.24588803    -0.38700
N300        N  0.85197484  0.31703673  0.25430422    -0.38700
N301        N  0.73892460  0.28413025  0.37222912    -0.38140
N302        N  0.82692326  0.28913256  0.12887467    -0.38150
C303        C  0.77272100  0.27878470  0.79435990    -0.04810
C304        C  0.75764400  0.29364326  0.76279466    -0.01930
C305        C  0.76760737  0.30288770  0.71777755     0.03060
C306        C  0.79266506  0.29728261  0.70411280    -0.04810
C307        C  0.80773738  0.28241609  0.73557205    -0.01920
C308        C  0.79780292  0.27319615  0.78066163     0.03060
C309        C  0.73209966  0.30004919  0.77738449     0.37710
C310        C  0.83331884  0.27620483  0.72094991     0.37700
C311        C  0.81317052  0.25738896  0.81227702     0.36120
C312        C  0.75225649  0.31865077  0.68603597     0.36120
N313        N  0.82543634  0.24471942  0.83737870    -0.38700
N314        N  0.74000620  0.33128683  0.66084121    -0.38700
N315        N  0.85369087  0.27124277  0.70906101    -0.38140
N316        N  0.71175493  0.30515416  0.78922388    -0.38150
C317        C  0.77332576  0.76483954  0.20490291    -0.04810
C318        C  0.78279858  0.78139786  0.24142211    -0.01930
C319        C  0.79269834  0.77190479  0.28620833     0.03060
C320        C  0.79277168  0.74568490  0.29541329    -0.04810
C321        C  0.78285107  0.72913781  0.25895903    -0.01920
C322        C  0.77343645  0.73868684  0.21371259     0.03060
C323        C  0.78313242  0.80828058  0.23219787     0.37710
C324        C  0.78134329  0.70233160  0.26850632     0.37700
C325        C  0.76315652  0.72160906  0.17675517     0.36120
C326        C  0.80372300  0.78924939  0.32178256     0.36120
N327        N  0.75495470  0.70797789  0.14731338    -0.38700
N328        N  0.81249242  0.80316318  0.35004097    -0.38700
N329        N  0.78005244  0.68094001  0.27596254    -0.38140
N330        N  0.78337953  0.82970631  0.22476880    -0.38150
C331        C  0.79217893  0.74510372  0.70419723    -0.04810
C332        C  0.80196748  0.73662847  0.75023219    -0.01930
C333        C  0.79119747  0.74469807  0.79565296     0.03060
C334        C  0.77312407  0.76434164  0.79659170    -0.04810
C335        C  0.76502533  0.77447532  0.75062495    -0.01920
C336        C  0.77297199  0.76367008  0.70515324     0.03060
C337        C  0.82386254  0.72031114  0.75186378     0.37710
C338        C  0.74921016  0.79673115  0.74920140     0.37700
C339        C  0.76018225  0.77116397  0.65994576     0.36120
C340        C  0.79816383  0.73161476  0.84085013     0.36120
N341        N  0.74963684  0.77724562  0.62434025    -0.38740
N342        N  0.80377765  0.72085241  0.87648415    -0.38700
N343        N  0.73675756  0.81457399  0.74745498    -0.38140
N344        N  0.84142071  0.70745299  0.75385500    -0.38150
C345        C  0.30527732  0.74516090  0.29698457    -0.04810
C346        C  0.31065134  0.72840882  0.25730384    -0.01930
C347        C  0.32049753  0.73754474  0.21206082     0.03060
C348        C  0.32552598  0.76348636  0.20609862    -0.04810
C349        C  0.32039484  0.78022315  0.24579983    -0.01920
C350        C  0.31020507  0.77116176  0.29083313     0.03060
C351        C  0.30719001  0.70150713  0.26335488     0.37710
C352        C  0.32477369  0.80701247  0.23997252     0.37700
C353        C  0.30408987  0.78893938  0.33012837     0.36120
C354        C  0.32629944  0.71991284  0.17230381     0.36120
N355        N  0.29934521  0.80321249  0.36136643    -0.38700
N356        N  0.33079998  0.70581285  0.14062374    -0.38700
N357        N  0.32829127  0.82837612  0.23556472    -0.38140
N358        N  0.30448980  0.68002924  0.26782921    -0.38150
C359        C  0.32564937  0.76513257  0.79701421    -0.04810
C360        C  0.30008654  0.75770815  0.79286785    -0.01930
C361        C  0.29081800  0.74772014  0.74779068     0.03060
C362        C  0.30684582  0.74526749  0.70598349    -0.04810
C363        C  0.33231150  0.75286284  0.70989568    -0.01920
C364        C  0.34169493  0.76253746  0.75512813     0.03060
C365        C  0.28283962  0.76099812  0.83436035     0.37710
C366        C  0.34934583  0.74990285  0.66794699     0.37700
C367        C  0.36826436  0.76873211  0.75864907     0.36120
C368        C  0.26443098  0.74075744  0.74425823     0.36120
N369        N  0.38946799  0.77365540  0.76100420    -0.38700
N370        N  0.24340199  0.73515797  0.74172689    -0.38700
N371        N  0.36298311  0.74770363  0.63456414    -0.38140
N372        N  0.26897600  0.76343888  0.86731568    -0.38150
C373        C  0.30658040  0.29765864  0.29514838    -0.04810
C374        C  0.32895707  0.30762570  0.27481575    -0.01930
C375        C  0.33847174  0.29811290  0.22953832     0.03060
C376        C  0.32551882  0.27873405  0.20432386    -0.04810
C377        C  0.30306460  0.26885441  0.22456070    -0.01920
C378        C  0.29366403  0.27823972  0.27005797     0.03060
C379        C  0.34209930  0.32775952  0.30043835     0.37710
C380        C  0.28989020  0.24874029  0.19896043     0.37700
C381        C  0.27079625  0.26783486  0.29129283     0.36120
C382        C  0.36135605  0.30855164  0.20842143     0.36120
N383        N  0.25258135  0.25952283  0.30833933    -0.38700
N384        N  0.37959297  0.31688658  0.19151063    -0.38700
N385        N  0.27940961  0.23267307  0.17853295    -0.38140
N386        N  0.35253567  0.34384363  0.32090208    -0.38150
C387        C  0.30666378  0.29771634  0.70425700    -0.04810
C388        C  0.29014695  0.28686855  0.73938208    -0.01930
C389        C  0.29959766  0.27725227  0.78448500     0.03060
C390        C  0.32565820  0.27862777  0.79505251    -0.04810
C391        C  0.34213279  0.28971588  0.75996731    -0.01920
C392        C  0.33268475  0.29907113  0.71466827     0.03060
C393        C  0.26347461  0.28483289  0.72840133     0.37710
C394        C  0.36871200  0.29250256  0.77117270     0.37700
C395        C  0.34969206  0.31089596  0.67945345     0.36120
C396        C  0.28252171  0.26513010  0.81914764     0.36120
N397        N  0.36324688  0.32034470  0.65138601    -0.38700
N398        N  0.26886752  0.25544479  0.84670899    -0.38700
N399        N  0.38990585  0.29480083  0.78007970    -0.38140
N400        N  0.24221197  0.28318718  0.71958315    -0.38150
loop_ 
_geom_bond_atom_site_label_1 
_geom_bond_atom_site_label_2 
_geom_bond_distance 
_geom_bond_site_symmetry_2 
_ccdc_geom_bond_type 
N1            N2   1.322       .  A
N1            C5   1.345       .  A
N1           Cu9   2.072       .  S
N2            C3   1.346       .  A
N2           Cu8   2.076       .  S
C3            C4   1.383       .  A
C3            H6   1.082       .  S
C4            C5   1.382       .  A
C4          C387   1.485       .  S
C5            H7   1.082       .  S
Cu8          N11   2.076       .  S
Cu9          N19   2.072       .  S
Cu10         N12   2.071       .  S
Cu10         N18   2.071       .  S
N11          N12   1.323       .  A
N11          C15   1.345       .  A
N12          C13   1.345       .  A
C13          C14   1.380       .  A
C13          H16   1.082       .  S
C14          C15   1.380       .  A
C14          C52   1.463       .  S
C15          H17   1.082       .  S
N18          N19   1.323       .  A
N18          C22   1.345       .  A
N19          C20   1.345       .  A
C20          C21   1.380       .  A
C20          H23   1.082       .  S
C21          C22   1.380       .  A
C21         C373   1.477       .  S
C22          H24   1.082       .  S
N25          N26   1.323       .  A
N25          C29   1.345       .  A
N25         Cu33   2.072   1_554  S
N26          C27   1.345       .  A
N26         Cu32   2.072       .  S
C27          C28   1.380       .  A
C27          H30   1.082       .  S
C28          C29   1.381       .  A
C28         C376   1.478       .  S
C29          H31   1.082       .  S
Cu32         N35   2.072       .  S
Cu33         N43   2.072       .  S
Cu34         N36   2.077       .  S
Cu34         N42   2.077       .  S
N35          N36   1.323   1_554  A
N35          C39   1.345       .  A
N36          C37   1.346       .  A
C37          C38   1.380       .  A
C37          H40   1.083       .  S
C38          C39   1.380   1_556  A
C38         C220   1.463       .  S
C39          H41   1.083       .  S
N42          N43   1.322       .  A
N42          C46   1.345       .  A
N43          C44   1.345       .  A
C44          C45   1.384       .  A
C44          H47   1.082       .  S
C45          C46   1.385       .  A
C45         C390   1.489       .  S
C46          H48   1.082       .  S
N49          N50   1.323       .  A
N49          C53   1.345       .  A
N49         Cu57   2.070       .  S
N50          C51   1.345       .  A
N50         Cu56   2.077       .  S
C51          C52   1.381       .  A
C51          H54   1.082       .  S
C52          C53   1.379       .  A
C53          H55   1.082       .  S
Cu56         N59   2.077       .  S
Cu57         N67   2.070       .  S
Cu58         N60   2.069       .  S
Cu58         N66   2.069       .  S
N59          N60   1.323       .  A
N59          C63   1.345       .  A
N60          C61   1.345       .  A
C61          C62   1.379       .  A
C61          H64   1.082       .  S
C62          C63   1.381       .  A
C62          C86   1.463       .  S
C63          H65   1.082       .  S
N66          N67   1.322       .  A
N66          C70   1.344       .  A
N67          C68   1.344       .  A
C68          C69   1.382       .  A
C68          H71   1.082       .  S
C69          C70   1.382       .  A
C69         C165   1.469       .  S
C70          H72   1.082       .  S
N73          N74   1.321       .  A
N73          C77   1.343       .  A
N73         Cu81   2.065       .  S
N74          C75   1.345       .  A
N74         Cu80   2.076       .  S
C75          C76   1.388       .  A
C75          H78   1.082       .  S
C76          C77   1.385       .  A
C76         C345   1.493       .  S
C77          H79   1.082       .  S
Cu80         N83   2.077       .  S
Cu81         N91   2.065       .  S
Cu82         N84   2.072       .  S
Cu82         N90   2.072       .  S
N83          N84   1.324       .  A
N83          C87   1.346       .  A
N84          C85   1.345       .  A
C85          C86   1.379       .  A
C85          H88   1.082       .  S
C86          C87   1.380       .  A
C87          H89   1.082       .  S
N90          N91   1.321       .  A
N90          C94   1.344       .  A
N91          C92   1.343       .  A
C92          C93   1.385       .  A
C92          H95   1.082       .  S
C93          C94   1.387       .  A
C93         C362   1.491       .  S
C94          H96   1.082       .  S
N97          N98   1.321       .  A
N97         C101   1.343       .  A
N97        Cu105   2.065       .  S
N98          C99   1.344       .  A
N98        Cu104   2.070       .  S
C99         C100   1.386       .  A
C99         H102   1.082       .  S
C100        C101   1.384       .  A
C100        C348   1.489       .  S
C101        H103   1.082       .  S
Cu104       N107   2.070       .  S
Cu105       N115   2.065   1_554  S
Cu106       N108   2.077       .  S
Cu106       N114   2.076       .  S
N107        N108   1.323   1_554  A
N107        C111   1.344       .  A
N108        C109   1.346       .  A
C109        C110   1.380   1_556  A
C109        H112   1.082       .  S
C110        C111   1.379       .  A
C110        C124   1.462       .  S
C111        H113   1.082       .  S
N114        N115   1.320       .  A
N114        C118   1.345       .  A
N115        C116   1.343       .  A
C116        C117   1.386       .  A
C116        H119   1.082       .  S
C117        C118   1.389       .  A
C117        C359   1.495       .  S
C118        H120   1.081       .  S
N121        N122   1.323   1_556  A
N121        C125   1.345       .  A
N121       Cu129   2.069   1_556  S
N122        C123   1.345       .  A
N122       Cu128   2.072       .  S
C123        C124   1.380       .  A
C123        H126   1.082       .  S
C124        C125   1.379   1_554  A
C125        H127   1.082       .  S
Cu128       N131   2.072       .  S
Cu129       N139   2.069       .  S
Cu130       N132   2.072       .  S
Cu130       N138   2.072       .  S
N131        N132   1.323       .  A
N131        C135   1.344       .  A
N132        C133   1.346       .  A
C133        C134   1.380       .  A
C133        H136   1.082       .  S
C134        C135   1.379       .  A
C134        C206   1.462       .  S
C135        H137   1.082   1_554  S
N138        N139   1.322       .  A
N138        C142   1.344       .  A
N139        C140   1.344       .  A
C140        C141   1.382   1_565  A
C140        H143   1.082   1_554  S
C141        C142   1.382   1_545  A
C141        C237   1.469       .  S
C142        H144   1.082       .  S
N145        N146   1.323       .  A
N145        C149   1.346       .  A
N145       Cu153   2.071       .  S
N146        C147   1.344       .  A
N146       Cu152   2.071       .  S
C147        C148   1.380       .  A
C147        H150   1.082       .  S
C148        C149   1.380       .  A
C148        C278   1.462       .  S
C149        H151   1.082       .  S
Cu152       N155   2.071       .  S
Cu153       N163   2.071       .  S
Cu154       N156   2.073       .  S
Cu154       N162   2.073       .  S
N155        N156   1.323       .  A
N155        C159   1.344       .  A
N156        C157   1.346       .  A
C157        C158   1.381       .  A
C157        H160   1.082       .  S
C158        C159   1.379       .  A
C158        C182   1.463       .  S
C159        H161   1.082       .  S
N162        N163   1.323       .  A
N162        C166   1.344   1_655  A
N163        C164   1.344   1_655  A
C164        C165   1.382       .  A
C164        H167   1.082       .  S
C165        C166   1.382       .  A
C166        H168   1.082       .  S
N169        N170   1.321       .  A
N169        C173   1.345       .  A
N169       Cu177   2.075       .  S
N170        C171   1.345       .  A
N170       Cu176   2.074       .  S
C171        C172   1.386       .  A
C171        H174   1.082       .  S
C172        C173   1.387       .  A
C172        C320   1.494       .  S
C173        H175   1.082       .  S
Cu176       N179   2.074       .  S
Cu177       N187   2.074       .  S
Cu178       N180   2.076       .  S
Cu178       N186   2.075       .  S
N179        N180   1.323       .  A
N179        C183   1.346       .  A
N180        C181   1.345       .  A
C181        C182   1.380       .  A
C181        H184   1.082       .  S
C182        C183   1.380       .  A
C183        H185   1.082       .  S
N186        N187   1.319       .  A
N186        C190   1.344       .  A
N187        C188   1.344       .  A
C188        C189   1.392       .  A
C188        H191   1.080       .  S
C189        C190   1.392       .  A
C189        C331   1.506       .  S
C190        H192   1.080       .  S
N193        N194   1.322       .  A
N193        C197   1.346       .  A
N193       Cu201   2.076       .  S
N194        C195   1.345       .  A
N194       Cu200   2.073       .  S
C195        C196   1.383       .  A
C195        H198   1.082       .  S
C196        C197   1.383       .  A
C196        C317   1.484       .  S
C197        H199   1.082       .  S
Cu200       N203   2.073       .  S
Cu201       N211   2.074   1_554  S
Cu202       N204   2.074       .  S
Cu202       N210   2.074       .  S
N203        N204   1.323   1_554  A
N203        C207   1.345       .  A
N204        C205   1.345       .  A
C205        C206   1.380   1_556  A
C205        H208   1.082       .  S
C206        C207   1.380       .  A
C207        H209   1.082       .  S
N210        N211   1.319       .  A
N210        C214   1.343       .  A
N211        C212   1.344       .  A
C212        C213   1.392       .  A
C212        H215   1.080       .  S
C213        C214   1.391       .  A
C213        C334   1.505       .  S
C214        H216   1.081       .  S
N217        N218   1.323   1_554  A
N217        C221   1.345       .  A
N217       Cu225   2.069       .  S
N218        C219   1.345       .  A
N218       Cu224   2.080       .  S
C219        C220   1.381       .  A
C219        H222   1.084       .  S
C220        C221   1.379   1_556  A
C221        H223   1.081       .  S
Cu224       N227   2.080   1_556  S
Cu225       N235   2.068       .  S
Cu226       N228   2.070       .  S
Cu226       N234   2.070       .  S
N227        N228   1.323       .  A
N227        C231   1.346   1_554  A
N228        C229   1.345       .  A
C229        C230   1.379       .  A
C229        H232   1.082       .  S
C230        C231   1.382   1_554  A
C230        C254   1.464       .  S
C231        H233   1.082       .  S
N234        N235   1.322       .  A
N234        C238   1.344       .  A
N235        C236   1.344       .  A
C236        C237   1.382       .  A
C236        H239   1.082       .  S
C237        C238   1.383       .  A
C238        H240   1.081       .  S
N241        N242   1.320       .  A
N241        C245   1.343       .  A
N241       Cu249   2.071   1_554  S
N242        C243   1.345       .  A
N242       Cu248   2.079       .  S
C243        C244   1.391       .  A
C243        H246   1.081       .  S
C244        C245   1.389       .  A
C244        C289   1.501       .  S
C245        H247   1.081       .  S
Cu248       N251   2.080       .  S
Cu249       N259   2.071       .  S
Cu250       N252   2.071       .  S
Cu250       N258   2.070       .  S
N251        N252   1.323   1_554  A
N251        C255   1.346       .  A
N252        C253   1.345       .  A
C253        C254   1.379   1_556  A
C253        H256   1.082       .  S
C254        C255   1.381       .  A
C255        H257   1.082       .  S
N258        N259   1.322       .  A
N258        C262   1.345       .  A
N259        C260   1.345       .  A
C260        C261   1.382       .  A
C260        H263   1.082       .  S
C261        C262   1.382       .  A
C261        C303   1.481       .  S
C262        H264   1.082       .  S
N265        N266   1.321       .  A
N265        C269   1.344       .  A
N265       Cu273   2.072       .  S
N266        C267   1.344       .  A
N266       Cu272   2.072       .  S
C267        C268   1.387       .  A
C267        H270   1.082       .  S
C268        C269   1.387       .  A
C268        C292   1.496       .  S
C269        H271   1.082       .  S
Cu272       N275   2.072       .  S
Cu273       N283   2.072       .  S
Cu274       N276   2.074       .  S
Cu274       N282   2.074       .  S
N275        N276   1.323       .  A
N275        C279   1.345       .  A
N276        C277   1.346       .  A
C277        C278   1.380       .  A
C277        H280   1.082       .  S
C278        C279   1.379       .  A
C279        H281   1.082       .  S
N282        N283   1.323       .  A
N282        C286   1.345       .  A
N283        C284   1.345       .  A
C284        C285   1.380       .  A
C284        H287   1.082       .  S
C285        C286   1.381       .  A
C285        C306   1.479       .  S
C286        H288   1.082       .  S
C289        C290   1.419       .  A
C289        C294   1.419       .  A
C290        C291   1.413       .  A
C290        C295   1.452       .  S
C291        C292   1.415       .  A
C291        C298   1.452       .  S
C292        C293   1.415       .  A
C293        C294   1.413       .  A
C293        C296   1.452       .  S
C294        C297   1.452       .  S
C295        N302   1.158       .  T
C296        N301   1.157       .  T
C297        N299   1.158       .  T
C298        N300   1.158       .  T
C303        C304   1.412       .  A
C303        C308   1.412       .  A
C304        C305   1.410       .  A
C304        C309   1.451       .  S
C305        C306   1.411       .  A
C305        C312   1.451       .  S
C306        C307   1.411       .  A
C307        C308   1.410       .  A
C307        C310   1.451       .  S
C308        C311   1.451       .  S
C309        N316   1.157       .  T
C310        N315   1.157       .  T
C311        N313   1.157       .  T
C312        N314   1.157       .  T
C317        C318   1.410       .  A
C317        C322   1.411       .  A
C318        C319   1.411       .  A
C318        C323   1.452       .  S
C319        C320   1.417       .  A
C319        C326   1.451       .  S
C320        C321   1.417       .  A
C321        C322   1.413       .  A
C321        C324   1.451       .  S
C322        C325   1.451       .  S
C323        N330   1.157       .  T
C324        N329   1.158       .  T
C325        N327   1.157       .  T
C326        N328   1.157       .  T
C331        C332   1.419       .  A
C331        C336   1.420       .  A
C332        C333   1.413       .  A
C332        C337   1.452       .  S
C333        C334   1.419       .  A
C333        C340   1.451       .  S
C334        C335   1.418       .  A
C335        C336   1.413       .  A
C335        C338   1.452       .  S
C336        C339   1.451       .  S
C337        N344   1.158       .  T
C338        N343   1.158       .  T
C339        N341   1.158       .  T
C340        N342   1.158       .  T
C345        C346   1.416       .  A
C345        C350   1.417       .  A
C346        C347   1.411       .  A
C346        C351   1.452       .  S
C347        C348   1.414       .  A
C347        C354   1.452       .  S
C348        C349   1.414       .  A
C349        C350   1.411       .  A
C349        C352   1.452       .  S
C350        C353   1.452       .  S
C351        N358   1.157       .  T
C352        N357   1.157       .  T
C353        N355   1.157       .  T
C354        N356   1.157       .  T
C359        C360   1.418       .  A
C359        C364   1.417       .  A
C360        C361   1.412       .  A
C360        C365   1.452       .  S
C361        C362   1.414       .  A
C361        C368   1.452       .  S
C362        C363   1.415       .  A
C363        C364   1.411       .  A
C363        C366   1.452       .  S
C364        C367   1.452       .  S
C365        N372   1.158       .  T
C366        N371   1.157       .  T
C367        N369   1.157       .  T
C368        N370   1.157       .  T
C373        C374   1.410       .  A
C373        C378   1.410       .  A
C374        C375   1.409       .  A
C374        C379   1.451       .  S
C375        C376   1.411       .  A
C375        C382   1.451       .  S
C376        C377   1.411       .  A
C377        C378   1.410       .  A
C377        C380   1.451       .  S
C378        C381   1.451       .  S
C379        N386   1.157       .  T
C380        N385   1.157       .  T
C381        N383   1.157       .  T
C382        N384   1.157       .  T
C387        C388   1.412       .  A
C387        C392   1.412       .  A
C388        C389   1.412       .  A
C388        C393   1.451       .  S
C389        C390   1.415       .  A
C389        C396   1.451       .  S
C390        C391   1.415       .  A
C391        C392   1.411       .  A
C391        C394   1.451       .  S
C392        C395   1.451       .  S
C393        N400   1.157       .  T
C394        N399   1.157       .  T
C395        N397   1.157       .  T
C396        N398   1.157       .  T
