geometry optimzed in LAMMPS
_audit_creation_date              2020-11-30 
_audit_creation_method            'lammps2cif' 
_symmetry_space_group_name_H-M    'P1' 
_symmetry_Int_Tables_number       1 
_symmetry_cell_setting            triclinic 
loop_ 
_symmetry_equiv_pos_as_xyz 
  x,y,z 
_cell_length_a                    34.37180629 
_cell_length_b                    34.44383585927939 
_cell_length_c                    34.3819615701823 
_cell_angle_alpha                 90.31260783713532 
_cell_angle_beta                  89.93906535395917 
_cell_angle_gamma                 91.26240275987945 
loop_ 
_atom_site_label 
_atom_site_type_symbol 
_atom_site_fract_x 
_atom_site_fract_y 
_atom_site_fract_z 
_atom_site_charge 
O1          O  0.53735368  0.04818966  0.85797092    -0.85600
O2          O  0.53024395  0.05575526  0.63811347    -0.85700
O3          O  0.61022403  0.04196190  0.73520229    -0.87400
O4          O  0.52357658  0.12918661  0.76103637    -0.86200
O5          O  0.45699885  0.12827926  0.76177389    -0.85700
O6          O  0.60923119  0.97547081  0.73431394    -0.87100
O7          O  0.56045282  0.09136170  0.68625621    -0.85600
O8          O  0.57273245  0.07859572  0.81017878    -0.85200
Zr9        Zr  0.54382228  0.06254448  0.74797229     2.84300
O10         O  0.48795001  0.06380953  0.70929753    -1.07200
O11         O  0.54478926  0.00637892  0.78579310    -1.07900
C12         C  0.56495172  0.07133766  0.84611113     1.07500
C13         C  0.55333381  0.08332516  0.65030954     1.07500
C14         C  0.62663318  0.00887511  0.73014412     1.10500
C15         C  0.49046985  0.14568567  0.76622489     1.08200
H16         H  0.56354171  0.00890037  0.68889226     0.33800
O17         O  0.54197112  0.00822273  0.70685813    -1.28100
H18         H  0.49017400  0.08243277  0.80659832     0.33500
O19         O  0.48938178  0.06091731  0.78849186    -1.29800
O20         O  0.44378520  0.96162746  0.63624963    -0.85600
O21         O  0.44049791  0.96515148  0.85842549    -0.87100
O22         O  0.55926104  0.92762464  0.68009073    -0.85600
O23         O  0.41501698  0.09093491  0.68791052    -0.85700
O24         O  0.40869115  0.07883113  0.81374588    -0.85400
O25         O  0.57077067  0.93181882  0.80613546    -0.85200
O26         O  0.45377060  0.88319617  0.75316649    -0.85600
O27         O  0.36430886  0.97184548  0.74279532    -0.85000
O28         O  0.52027416  0.88468583  0.74884194    -0.86100
O29         O  0.36633138  0.03831074  0.74614169    -0.85300
O30         O  0.53018120  0.96556680  0.63416355    -0.85700
O31         O  0.53565481  0.96051173  0.85454031    -0.85400
O32         O  0.44654959  0.05007925  0.86007477    -0.85000
O33         O  0.44380108  0.05607927  0.63940486    -0.85400
O34         O  0.41428550  0.92388210  0.68311529    -0.85700
O35         O  0.40286280  0.93539884  0.81132661    -0.87100
Zr36       Zr  0.48621847  0.00871138  0.66895376     2.83100
Zr37       Zr  0.48967519  0.00522196  0.82606158     2.83500
Zr38       Zr  0.54245950  0.95203835  0.74466176     2.84100
Zr39       Zr  0.43348194  0.06170560  0.74978836     2.83400
Zr40       Zr  0.43142940  0.95030761  0.74739454     2.84200
O41         O  0.43379756  0.00542240  0.78733372    -1.07600
O42         O  0.48610934  0.95230316  0.70682248    -1.07100
C43         C  0.42202403  0.93270589  0.64730668     1.07500
C44         C  0.41109957  0.94397364  0.84718123     1.10100
C45         C  0.55250046  0.93774084  0.64462028     1.07700
C46         C  0.42216575  0.08384471  0.65162713     1.08100
C47         C  0.41876315  0.07237789  0.84925196     1.07600
C48         C  0.56292890  0.93820034  0.84235623     1.07200
C49         C  0.48726822  0.86657853  0.75313317     1.07600
C50         C  0.34798008  0.00534034  0.74272628     1.07100
H51         H  0.48787911  0.92767789  0.80244972     0.33800
O52         O  0.48781865  0.95024267  0.78591570    -1.28700
H53         H  0.40872486  0.00698338  0.69248553     0.33800
O54         O  0.43130211  0.00678154  0.70897281    -1.30100
C55         C  0.69227582  0.20563799  0.50339558     0.87400
C56         C  0.67525908  0.17820636  0.53467704    -0.52800
C57         C  0.63539550  0.17686345  0.53613955     0.10300
C58         C  0.61629493  0.20167553  0.50475846     0.21300
C59         C  0.67399233  0.18928203  0.46580525    -0.53500
C60         C  0.63438613  0.18698942  0.46632788     0.10400
C61         C  0.67308155  0.24455290  0.51058970    -0.53100
C62         C  0.63357958  0.24286432  0.51199460     0.11000
H63         H  0.69278309  0.15961826  0.55257026     0.15500
H64         H  0.58408760  0.20068268  0.50521706     0.01300
H65         H  0.69086174  0.17678639  0.44231851     0.15800
H66         H  0.68973488  0.27150752  0.51427496     0.15600
O67         O  0.57092194  0.09757689  0.31117095    -0.85600
O68         O  0.42593876  0.93077990  0.30932694    -0.85700
O69         O  0.45425017  0.05680659  0.35923404    -0.87400
O70         O  0.54191828  0.96523175  0.35391652    -0.86200
O71         O  0.57091555  0.93078675  0.30525686    -0.85700
O72         O  0.42514242  0.09433002  0.31286881    -0.87100
O73         O  0.45679585  0.96535075  0.35775045    -0.85600
O74         O  0.54151548  0.06033625  0.35841898    -0.85200
Zr75       Zr  0.49873198  0.01335346  0.32569644     2.84300
O76         O  0.49696148  0.95876293  0.28498759    -1.07200
O77         O  0.49843451  0.06924112  0.28702500    -1.07900
C78         C  0.56352470  0.08902648  0.34714647     1.07500
C79         C  0.43393695  0.93769979  0.34537318     1.07500
C80         C  0.43186473  0.08441739  0.34833372     1.10500
C81         C  0.56385563  0.93766952  0.34150445     1.08200
H82         H  0.42107591  0.01367247  0.30543506     0.33800
O83         O  0.44276090  0.01434158  0.28764509    -1.28100
H84         H  0.57614808  0.01496541  0.30259456     0.33500
O85         O  0.55367224  0.01515035  0.28594527    -1.29800
O86         O  0.41154361  0.94334379  0.18466250    -0.85600
O87         O  0.58178608  0.08535142  0.18306218    -0.87100
O88         O  0.37531066  0.04746527  0.25896150    -0.85600
O89         O  0.52860441  0.89467642  0.23527034    -0.85700
O90         O  0.61925642  0.98301654  0.25031381    -0.85400
O91         O  0.46546980  0.13736156  0.24457863    -0.85200
O92         O  0.44598292  0.05885283  0.13838118    -0.85600
O93         O  0.53602899  0.97061748  0.13425224    -0.85000
O94         O  0.41191333  0.08834148  0.18701520    -0.86100
O95         O  0.57436033  0.94230697  0.18050797    -0.85300
O96         O  0.37421931  0.98095713  0.25894622    -0.85700
O97         O  0.53203231  0.13747451  0.24213595    -0.85400
O98         O  0.62009329  0.04937045  0.25348290    -0.85000
O99         O  0.46188256  0.89381229  0.23453801    -0.85400
O100        O  0.44616964  0.97401984  0.13641522    -0.85700
O101        O  0.54232471  0.05768402  0.13605926    -0.87100
Zr102      Zr  0.44069304  0.95987165  0.24697105     2.83100
Zr103      Zr  0.55331074  0.07079177  0.24695887     2.83500
Zr104      Zr  0.44219478  0.07015521  0.24877013     2.84100
Zr105      Zr  0.55156691  0.96095724  0.24459386     2.83400
Zr106      Zr  0.49419011  0.01657213  0.16806012     2.84200
O107        O  0.55099728  0.01643993  0.20608395    -1.07600
O108        O  0.43952045  0.01549537  0.20854757    -1.07100
C109        C  0.41855728  0.95112046  0.14862083     1.07500
C110        C  0.57222695  0.07804794  0.14729643     1.10100
C111        C  0.35778469  0.01416245  0.26318649     1.07700
C112        C  0.49520446  0.87758511  0.23034504     1.08100
C113        C  0.63698243  0.01623720  0.25462166     1.07600
C114        C  0.49904209  0.15472713  0.24146469     1.07200
C115        C  0.41835086  0.08080298  0.15065703     1.07600
C116        C  0.56355667  0.94808850  0.14513080     1.07100
H117        H  0.49700122  0.09413424  0.19137958     0.33800
O118        O  0.49695600  0.07167290  0.20794724    -1.28700
H119        H  0.49418919  0.93965123  0.18850554     0.33800
O120        O  0.49511608  0.96140717  0.20637248    -1.30100
C121        C  0.29610016  0.81539058  0.99963334     0.87400
C122        C  0.31188818  0.83541845  0.96283688    -0.52800
C123        C  0.31124976  0.87500490  0.96426631     0.10300
C124        C  0.29483644  0.89119151  0.00287459     0.21300
C125        C  0.32168502  0.83350192  0.03192028    -0.53500
C126        C  0.32053912  0.87313835  0.03429433     0.10400
C127        C  0.25573007  0.83162359  0.00596564    -0.53100
C128        C  0.25453481  0.87091456  0.00852426     0.11000
H129        H  0.32715828  0.82038541  0.93981598     0.15500
H130        H  0.29418019  0.92330905  0.00438319     0.01300
H131        H  0.34043318  0.81653485  0.05030096     0.15800
H132        H  0.22987851  0.81300731  0.00792268     0.15600
C133        C  0.68781222  0.81497775  0.99769707     0.87400
C134        C  0.65988771  0.82732845  0.03061644    -0.52800
C135        C  0.65275108  0.86622868  0.03097801     0.10300
C136        C  0.67299356  0.88907074  0.99824370     0.21300
C137        C  0.66699218  0.82917822  0.96083553    -0.53500
C138        C  0.65942534  0.86793419  0.96081627     0.10400
C139        C  0.72383731  0.84152656  0.00240347    -0.53100
C140        C  0.71620717  0.88009998  0.00306108     0.11000
H141        H  0.64696820  0.80757040  0.05170347     0.15500
H142        H  0.66721620  0.92066741  0.99887236     0.01300
H143        H  0.65561961  0.80980888  0.93840620     0.15800
H144        H  0.75304604  0.83059135  0.00583763     0.15600
C145        C  0.68770548  0.81392357  0.49769792     0.87400
C146        C  0.67315231  0.83319083  0.46013548    -0.52800
C147        C  0.63385760  0.83948489  0.45935702     0.10300
C148        C  0.61263871  0.82545180  0.49660805     0.21300
C149        C  0.67324535  0.84191182  0.52999543    -0.53500
C150        C  0.63389472  0.84725747  0.52957390     0.10400
C151        C  0.66254961  0.77712066  0.50213928    -0.53100
C152        C  0.62359209  0.78290375  0.50212240     0.11000
H153        H  0.69277364  0.84351900  0.43751088     0.15500
H154        H  0.58069773  0.82955464  0.49664456     0.01300
H155        H  0.69173254  0.85726920  0.55067883     0.15800
H156        H  0.67479158  0.74855482  0.50592688     0.15600
C157        C  0.29227323  0.20527990  0.99680244     0.87400
C158        C  0.31141535  0.18936493  0.03403511    -0.52800
C159        C  0.31845744  0.15038290  0.03305225     0.10300
C160        C  0.30548382  0.13071120  0.99460238     0.21300
C161        C  0.32101118  0.19301092  0.96435133    -0.53500
C162        C  0.32728673  0.15385872  0.96304339     0.10400
C163        C  0.25593483  0.17971220  0.99022984    -0.53100
C164        C  0.26260435  0.14097673  0.98878904     0.11000
H165        H  0.32202287  0.20776642  0.05760457     0.15500
H166        H  0.31061030  0.09899647  0.99335312     0.01300
H167        H  0.33500735  0.21304284  0.94420791     0.15800
H168        H  0.22706490  0.19145005  0.98666360     0.15600
C169        C  0.68246468  0.21198959  0.99523406     0.87400
C170        C  0.65748127  0.19415751  0.96243993    -0.52800
C171        C  0.65817433  0.15448823  0.96055603     0.10300
C172        C  0.68334239  0.13606228  0.99230105     0.21300
C173        C  0.66589403  0.19207858  0.03182813    -0.53500
C174        C  0.66644782  0.15247202  0.03033397     0.10400
C175        C  0.72268463  0.19530976  0.98958030    -0.53100
C176        C  0.72366302  0.15604503  0.98804195     0.11000
H177        H  0.63994359  0.21138488  0.94307779     0.15500
H178        H  0.68400110  0.10385683  0.99119074     0.01300
H179        H  0.65001027  0.20672007  0.05459080     0.15800
H180        H  0.74879681  0.21352083  0.98683765     0.15600
C181        C  0.30028882  0.20819962  0.49632262     0.87400
C182        C  0.31371713  0.17985652  0.46420391    -0.52800
C183        C  0.35292574  0.17462028  0.46370700     0.10300
C184        C  0.37522769  0.19651678  0.49578195     0.21300
C185        C  0.31571266  0.18941655  0.53373843    -0.53500
C186        C  0.35492117  0.18321488  0.53366564     0.10400
C187        C  0.32532153  0.24501960  0.49070332    -0.53100
C188        C  0.36433225  0.23899740  0.48985723     0.11000
H189        H  0.29456377  0.16449851  0.44406986     0.15500
H190        H  0.40709148  0.19187451  0.49499768     0.01300
H191        H  0.29679805  0.17875802  0.55680156     0.15800
H192        H  0.31301294  0.27351811  0.48671798     0.15600
C193        C  0.29595500  0.81552937  0.49093926     0.87400
C194        C  0.31405034  0.83325171  0.52794171    -0.52800
C195        C  0.35376426  0.83404963  0.52815486     0.10300
C196        C  0.37218931  0.81619616  0.49124424     0.21300
C197        C  0.31475180  0.84017869  0.45849250    -0.53500
C198        C  0.35461061  0.83982639  0.45787207     0.10400
C199        C  0.31369227  0.77570875  0.48645294    -0.53100
C200        C  0.35308393  0.77544678  0.48696232     0.11000
H201        H  0.29695718  0.84669200  0.55073432     0.15500
H202        H  0.40443862  0.81572755  0.49176762     0.01300
H203        H  0.29903566  0.85952405  0.43988935     0.15800
H204        H  0.29608893  0.74924911  0.48322925     0.15600
O205        O  0.86757558  0.76236411  0.46289060    -0.85600
O206        O  0.02669707  0.75392591  0.61602461    -0.85700
O207        O  0.91206154  0.69364575  0.56855874    -0.87400
O208        O  0.91805055  0.81948676  0.57960765    -0.86200
O209        O  0.94704278  0.86803876  0.54391412    -0.85700
O210        O  0.95073835  0.64775412  0.54021018    -0.87100
O211        O  0.96021426  0.74915927  0.61759486    -0.85600
O212        O  0.86890281  0.76224638  0.52952529    -0.85200
Zr213      Zr  0.93663511  0.75780746  0.55102303     2.84300
O214        O  0.99109076  0.79970668  0.55060033    -1.07200
O215        O  0.93670717  0.71833967  0.49552326    -1.07900
C216        C  0.85093375  0.76493091  0.49658552     1.07500
C217        C  0.99415728  0.74762906  0.63376844     1.07500
C218        C  0.92248389  0.65839898  0.56227322     1.10500
C219        C  0.92503412  0.85565519  0.57195969     1.08200
H220        H  0.99374715  0.70358281  0.57174727     0.33800
O221        O  0.99293219  0.72075697  0.54974699    -1.28100
H222        H  0.91262819  0.81323617  0.49647362     0.33500
O223        O  0.93533636  0.79735763  0.49585997    -1.29800
O224        O  0.11394283  0.77196165  0.52713426    -0.85600
O225        O  0.95641546  0.75376968  0.37241090    -0.87100
O226        O  0.04026917  0.65186856  0.53820999    -0.85600
O227        O  0.03348509  0.87274281  0.54147210    -0.85700
O228        O  0.94253469  0.86854809  0.45217338    -0.85400
O229        O  0.94525573  0.64644978  0.45415914    -0.85200
O230        O  0.07755611  0.70239716  0.42350834    -0.85600
O231        O  0.06188817  0.82716171  0.41196677    -0.85000
O232        O  0.04267723  0.65306074  0.45301691    -0.86100
O233        O  0.02983736  0.87382483  0.44618565    -0.85300
O234        O  0.07477272  0.70088363  0.56847927    -0.85700
O235        O  0.90871273  0.69264241  0.42481813    -0.85400
O236        O  0.91443585  0.81985737  0.41491728    -0.85000
O237        O  0.06314335  0.82596382  0.57774849    -0.85400
O238        O  0.11270757  0.77310113  0.46052984    -0.85700
O239        O  0.02298693  0.75693698  0.37262987    -0.87100
Zr240      Zr  0.04727458  0.76278563  0.54933592     2.83100
Zr241      Zr  0.93495920  0.75744169  0.44027665     2.83500
Zr242      Zr  0.99334065  0.68154635  0.49449727     2.84100
Zr243      Zr  0.98975968  0.83935539  0.49532399     2.83400
Zr244      Zr  0.04586791  0.76318920  0.43916804     2.84200
O245        O  0.98941970  0.79942469  0.44001952    -1.07600
O246        O  0.04767845  0.72363928  0.49394945    -1.07100
C247        C  0.13037094  0.77597221  0.49357562     1.07500
C248        C  0.98987494  0.75385858  0.35507528     1.10100
C249        C  0.06731604  0.66454390  0.56148583     1.07700
C250        C  0.05553180  0.86152328  0.56956606     1.08100
C251        C  0.92005911  0.85588324  0.42458328     1.07600
C252        C  0.91651056  0.65693942  0.43258036     1.07200
C253        C  0.07087429  0.66628962  0.43164889     1.07600
C254        C  0.05306404  0.86294664  0.41859284     1.07100
H255        H  0.99188128  0.70348198  0.41638827     0.33800
O256        O  0.99159867  0.72026900  0.43880171    -1.28700
H257        H  0.06804596  0.82098081  0.49433433     0.33800
O258        O  0.04615528  0.80302439  0.49452050    -1.30100
O259        O  0.87523847  0.24852288  0.46881430    -0.85600
O260        O  0.03209335  0.26955408  0.62261915    -0.85700
O261        O  0.92631053  0.19456309  0.58505825    -0.87400
O262        O  0.91450490  0.31982903  0.57774669    -0.86200
O263        O  0.94925918  0.36856420  0.54771382    -0.85700
O264        O  0.95511009  0.14886960  0.54622954    -0.87100
O265        O  0.96549087  0.26756971  0.62325941    -0.85600
O266        O  0.87601979  0.24744538  0.53531269    -0.85200
Zr267      Zr  0.94249296  0.25845062  0.55725562     2.84300
O268        O  0.99737125  0.30006814  0.55759627    -1.07200
O269        O  0.94163371  0.22010858  0.50085626    -1.07900
C270        C  0.85859249  0.24415773  0.50218940     1.07500
C271        C  0.99887341  0.27149861  0.64004986     1.07500
C272        C  0.93356351  0.15903439  0.57546555     1.10500
C273        C  0.92188907  0.35606627  0.57057481     1.08200
H274        H  0.99925407  0.20599161  0.57874038     0.33800
O275        O  0.99863627  0.22180777  0.55578477    -1.28100
H276        H  0.91721083  0.31336425  0.50319362     0.33500
O277        O  0.94081246  0.29870899  0.50275180    -1.29800
O278        O  0.11968490  0.25447894  0.53169349    -0.85600
O279        O  0.96204846  0.27684363  0.38054719    -0.87100
O280        O  0.04303071  0.15320348  0.54345770    -0.85600
O281        O  0.04348906  0.37281190  0.54615562    -0.85700
O282        O  0.95080001  0.37056848  0.45779122    -0.85400
O283        O  0.95596905  0.15136816  0.45107172    -0.85200
O284        O  0.07094297  0.20313964  0.41626205    -0.85600
O285        O  0.07676717  0.32891687  0.42785568    -0.85000
O286        O  0.04273873  0.15451041  0.45285351    -0.86100
O287        O  0.03988056  0.37431982  0.45866506    -0.85300
O288        O  0.07315737  0.20041547  0.58047094    -0.85700
O289        O  0.92491929  0.19806739  0.41632510    -0.85400
O290        O  0.91326241  0.32235299  0.42900086    -0.85000
O291        O  0.08129260  0.32633759  0.57400287    -0.85400
O292        O  0.11901096  0.25724617  0.46523439    -0.85700
O293        O  0.02861077  0.27951712  0.37953987    -0.87100
Zr294      Zr  0.05359289  0.26299094  0.55548706     2.83100
Zr295      Zr  0.94123164  0.26059450  0.44633580     2.83500
Zr296      Zr  0.99781606  0.18339814  0.49927522     2.84100
Zr297      Zr  0.99605648  0.34014761  0.50307315     2.83400
Zr298      Zr  0.05185438  0.26479028  0.44484996     2.84200
O299        O  0.99593711  0.30166980  0.44718722    -1.07600
O300        O  0.05275581  0.22459744  0.49931868    -1.07100
C301        C  0.13641094  0.25254791  0.49808837     1.07500
C302        C  0.99496486  0.28369282  0.36347545     1.10100
C303        C  0.06585993  0.16458262  0.57126433     1.07700
C304        C  0.07234932  0.36198292  0.56744211     1.08100
C305        C  0.92281916  0.35826676  0.43539588     1.07600
C306        C  0.93354793  0.16242672  0.42325242     1.07200
C307        C  0.06469356  0.16702021  0.42480186     1.07600
C308        C  0.06732694  0.36425913  0.43523708     1.07100
H309        H  0.99744012  0.20865765  0.42007906     0.33800
O310        O  0.99715238  0.22348509  0.44400733    -1.28700
H311        H  0.07589924  0.31937283  0.50089180     0.33800
O312        O  0.05268236  0.30308769  0.50107764    -1.30100
C313        C  0.79132208  0.50997892  0.68861185     0.87400
C314        C  0.81037350  0.47234327  0.67446545    -0.52800
C315        C  0.81926127  0.47191800  0.63564850     0.10300
C316        C  0.80782716  0.50938032  0.61443722     0.21300
C317        C  0.82126315  0.54164751  0.67626776    -0.53500
C318        C  0.82900351  0.54158904  0.63742271     0.10400
C319        C  0.75618585  0.51539799  0.66213851    -0.53100
C320        C  0.76469176  0.51555347  0.62348976     0.11000
H321        H  0.81987544  0.44987929  0.69407723     0.15500
H322        H  0.81445202  0.50966893  0.58281248     0.01300
H323        H  0.83536667  0.56222524  0.69597178     0.15800
H324        H  0.72697459  0.51981213  0.67320299     0.15600
C325        C  0.18708220  0.51729947  0.69929464     0.87400
C326        C  0.16078284  0.54924649  0.68291087    -0.52800
C327        C  0.15994780  0.55080971  0.64303083     0.10300
C328        C  0.18484638  0.51972526  0.62326311     0.21300
C329        C  0.17027425  0.48015817  0.68012707    -0.53500
C330        C  0.16915723  0.48108704  0.64056749     0.10400
C331        C  0.22663786  0.52456158  0.68021328    -0.53100
C332        C  0.22603818  0.52648534  0.64078113     0.11000
H333        H  0.14288336  0.56783181  0.70070243     0.15500
H334        H  0.18400150  0.52076021  0.59101965     0.01300
H335        H  0.15665347  0.45657930  0.69639870     0.15800
H336        H  0.25336430  0.52746822  0.69694777     0.15600
C337        C  0.80183434  0.01334053  0.29898769     0.87400
C338        C  0.81074657  0.98001361  0.32736477    -0.52800
C339        C  0.84953074  0.97572041  0.33443030     0.10300
C340        C  0.87599403  0.00549927  0.31366549     0.21300
C341        C  0.82142786  0.04909703  0.31868239    -0.53500
C342        C  0.86009564  0.04501106  0.32601046     0.10400
C343        C  0.82684697  0.00529403  0.26300637    -0.53100
C344        C  0.86537119  0.00104415  0.27059741     0.11000
H345        H  0.78858227  0.96090403  0.33988556     0.15500
H346        H  0.90747161  0.00209284  0.31979253     0.01300
H347        H  0.80642344  0.07399915  0.32996341     0.15800
H348        H  0.81498510  0.00320942  0.23375948     0.15600
C349        C  0.79069105  0.00769307  0.68537012     0.87400
C350        C  0.81153236  0.04347606  0.66738744    -0.52800
C351        C  0.85136663  0.04264257  0.66875250     0.10300
C352        C  0.86687347  0.00568105  0.68859303     0.21300
C353        C  0.80834566  0.97362274  0.66264532    -0.53500
C354        C  0.84804952  0.97216077  0.66479771     0.10400
C355        C  0.80698767  0.00433138  0.72620021    -0.53100
C356        C  0.84627171  0.00316078  0.72859313     0.11000
H357        H  0.79626224  0.06608983  0.65216914     0.15500
H358        H  0.89910146  0.00475262  0.69027025     0.01300
H359        H  0.79179178  0.95378353  0.64415282     0.15800
H360        H  0.78836374  0.00211242  0.75174302     0.15600
C361        C  0.80363051  0.50190286  0.29541795     0.87400
C362        C  0.82016609  0.53878859  0.31528997    -0.52800
C363        C  0.82140636  0.53722507  0.35511496     0.10300
C364        C  0.80501373  0.49840156  0.37158355     0.21300
C365        C  0.82939113  0.46934374  0.31187076    -0.53500
C366        C  0.82987285  0.46761664  0.35165853     0.10400
C367        C  0.76398395  0.49464818  0.31425383    -0.53100
C368        C  0.76409393  0.49220700  0.35359521     0.11000
H369        H  0.83221278  0.56306742  0.29886163     0.15500
H370        H  0.80554147  0.49677652  0.40380259     0.01300
H371        H  0.84701594  0.44986344  0.29514088     0.15800
H372        H  0.73737206  0.49222626  0.29728575     0.15600
C373        C  0.19438710  0.51668899  0.30605701     0.87400
C374        C  0.16382251  0.48599018  0.31898669    -0.52800
C375        C  0.15786230  0.48479640  0.35827448     0.10300
C376        C  0.18144274  0.51578107  0.38091974     0.21300
C377        C  0.17766295  0.55471267  0.32215219    -0.53500
C378        C  0.17111022  0.55419280  0.36132571     0.10400
C379        C  0.23041239  0.50905847  0.33058952    -0.53100
C380        C  0.22372340  0.50818994  0.36955014     0.11000
H381        H  0.14787527  0.46710794  0.29897033     0.15500
H382        H  0.17654718  0.51536686  0.41282234     0.01300
H383        H  0.16770283  0.57820404  0.30404567     0.15800
H384        H  0.25892036  0.50415505  0.31800710     0.15600
C385        C  0.19277798  0.01648248  0.30502896     0.87400
C386        C  0.17600665  0.04961977  0.32950624    -0.52800
C387        C  0.13648209  0.05146465  0.32822269     0.10300
C388        C  0.11656053  0.01911213  0.30361213     0.21300
C389        C  0.17207481  0.98027186  0.32206653    -0.53500
C390        C  0.13209030  0.98105688  0.32185200     0.10400
C391        C  0.17560358  0.02148960  0.26465704    -0.53100
C392        C  0.13614944  0.02272542  0.26295911     0.11000
H393        H  0.19292180  0.06849648  0.34865665     0.15500
H394        H  0.08436417  0.02066041  0.30274913     0.01300
H395        H  0.18800323  0.95757948  0.33639682     0.15800
H396        H  0.19389596  0.02470388  0.23900335     0.15600
C397        C  0.18309634  0.00972590  0.70131306     0.87400
C398        C  0.16680473  0.97337673  0.68014025    -0.52800
C399        C  0.12817432  0.97513429  0.67134443     0.10300
C400        C  0.10908314  0.01308856  0.68442301     0.21300
C401        C  0.17285872  0.04281116  0.67314682    -0.53500
C402        C  0.13407341  0.04494760  0.66503765     0.10400
C403        C  0.15670163  0.01545631  0.73656159    -0.53100
C404        C  0.11815531  0.01807670  0.72790769     0.11000
H405        H  0.18461160  0.94960880  0.67027781     0.15500
H406        H  0.07759301  0.01456371  0.67764084     0.01300
H407        H  0.19414525  0.06204079  0.65948826     0.15800
H408        H  0.16791339  0.01871828  0.76596621     0.15600
O409        O  0.73814097  0.63577799  0.96230176    -0.85600
O410        O  0.75469157  0.47801473  0.11358211    -0.85700
O411        O  0.68480032  0.58755338  0.07666423    -0.87400
O412        O  0.80884233  0.59385324  0.06863405    -0.86200
O413        O  0.85479163  0.55919495  0.03616116    -0.85700
O414        O  0.63578870  0.55847110  0.04116191    -0.87100
O415        O  0.75584133  0.54455466  0.11553966    -0.85600
O416        O  0.73790353  0.63476576  0.02879798    -0.85200
Zr417      Zr  0.74606319  0.56792227  0.04916874     2.84300
O418        O  0.78428894  0.51294826  0.04728530    -1.07200
O419        O  0.70661609  0.56870426  0.99407051    -1.07900
C420        C  0.73490889  0.65235596  0.99591121     1.07500
C421        C  0.75939548  0.51083656  0.13138690     1.07500
C422        C  0.64862901  0.58111368  0.06855920     1.10500
C423        C  0.84435969  0.58579419  0.06055451     1.08200
H424        H  0.69009014  0.51305581  0.07322234     0.33800
O425        O  0.70506646  0.51320022  0.04944415    -1.28100
H426        H  0.80095062  0.59296203  0.99345221     0.33500
O427        O  0.78478083  0.56968293  0.99312110    -1.29800
O428        O  0.73232543  0.39250156  0.02383526    -0.85600
O429        O  0.74843519  0.54725115  0.87058234    -0.87100
O430        O  0.63294519  0.46966790  0.04012331    -0.85600
O431        O  0.85490159  0.46973566  0.03537325    -0.85700
O432        O  0.85583596  0.56001855  0.94846339    -0.85400
O433        O  0.63473143  0.56251773  0.95240158    -0.85200
O434        O  0.67460864  0.44278589  0.91033164    -0.85600
O435        O  0.80140261  0.43162525  0.91625551    -0.85000
O436        O  0.62881019  0.47317464  0.94759677    -0.86100
O437        O  0.85012710  0.46705611  0.94619817    -0.85300
O438        O  0.68092311  0.43967215  0.07472348    -0.85700
O439        O  0.68275398  0.59157692  0.91513855    -0.85400
O440        O  0.80964842  0.59638833  0.91879777    -0.85000
O441        O  0.80688801  0.43235293  0.06422599    -0.85400
O442        O  0.72690953  0.39309001  0.95757115    -0.85700
O443        O  0.74477924  0.48086603  0.86973669    -0.87100
Zr444      Zr  0.74348812  0.45815755  0.04672897     2.83100
Zr445      Zr  0.74534128  0.56983072  0.93800165     2.83500
Zr446      Zr  0.66467562  0.51446325  0.99425439     2.84100
Zr447      Zr  0.82221785  0.51371096  0.99109617     2.83400
Zr448      Zr  0.73968022  0.45925735  0.93629453     2.84200
O449        O  0.78211947  0.51374568  0.93605869    -1.07600
O450        O  0.70203341  0.45871743  0.99273029    -1.07100
C451        C  0.72498064  0.37603255  0.99085773     1.07500
C452        C  0.74829876  0.51403837  0.85282588     1.10100
C453        C  0.64503894  0.44709011  0.06732806     1.07700
C454        C  0.84293502  0.44191498  0.05780108     1.08100
C455        C  0.84552541  0.58816427  0.92626432     1.07600
C456        C  0.64697515  0.58563517  0.92530297     1.07200
C457        C  0.63897796  0.45086713  0.91908472     1.07600
C458        C  0.83766270  0.43936624  0.92361184     1.07100
H459        H  0.68697893  0.51630302  0.91487106     0.33800
O460        O  0.70313794  0.51545553  0.93773253    -1.28700
H461        H  0.79587685  0.43469475  0.99009477     0.33800
O462        O  0.78105475  0.45816625  0.99044930    -1.30100
O463        O  0.25606473  0.63163678  0.96999053    -0.85600
O464        O  0.23954187  0.47656589  0.12499123    -0.85700
O465        O  0.18778800  0.59577609  0.07769561    -0.87400
O466        O  0.31320287  0.58116780  0.08495780    -0.86200
O467        O  0.35856610  0.55133407  0.04654664    -0.85700
O468        O  0.13765025  0.55943986  0.05089347    -0.87100
O469        O  0.24235603  0.54306758  0.12497706    -0.85600
O470        O  0.25897296  0.63198268  0.03640120    -0.85200
Zr471      Zr  0.24869042  0.56529772  0.05868814     2.84300
O472        O  0.28525768  0.50875794  0.05716364    -1.07200
O473        O  0.20769649  0.56682870  0.00476569    -1.07900
C474        C  0.26105106  0.64894934  0.00297185     1.07500
C475        C  0.23872930  0.51006043  0.14223636     1.07500
C476        C  0.15125842  0.58794873  0.07190243     1.10500
C477        C  0.34859414  0.57358346  0.07520240     1.08200
H478        H  0.18991919  0.51060547  0.08240713     0.33800
O479        O  0.20646822  0.51049898  0.05982686    -1.28100
H480        H  0.30530296  0.58638381  0.00214480     0.33500
O481        O  0.28722171  0.56461195  0.00253827    -1.29800
O482        O  0.24742665  0.38671561  0.03389172    -0.85600
O483        O  0.23534689  0.54502136  0.88161860    -0.87100
O484        O  0.13294140  0.46230306  0.04486983    -0.85600
O485        O  0.35423340  0.46395276  0.04527016    -0.85700
O486        O  0.35661544  0.55018576  0.95401797    -0.85400
O487        O  0.13579203  0.55932545  0.96215189    -0.85200
O488        O  0.17552498  0.43095436  0.93085535    -0.85600
O489        O  0.30176595  0.43693382  0.91678581    -0.85000
O490        O  0.13047394  0.46930097  0.96115613    -0.86100
O491        O  0.35154856  0.46594996  0.95133319    -0.85300
O492        O  0.17990499  0.42558627  0.07301681    -0.85700
O493        O  0.18457048  0.59424810  0.93152357    -0.85400
O494        O  0.30906381  0.58132255  0.92072463    -0.85000
O495        O  0.30706868  0.43359926  0.08193714    -0.85400
O496        O  0.24470507  0.38743263  0.96737039    -0.85700
O497        O  0.23132559  0.47860645  0.88047231    -0.87100
Zr498      Zr  0.24382062  0.45392113  0.05755030     2.83100
Zr499      Zr  0.24585401  0.56523215  0.94862316     2.83500
Zr500      Zr  0.16577331  0.51238181  0.00564982     2.84100
Zr501      Zr  0.32341866  0.50829590  0.00077043     2.83400
Zr502      Zr  0.24057864  0.45514599  0.94687020     2.84200
O503        O  0.28264469  0.50927677  0.94624449    -1.07600
O504        O  0.20304801  0.45616822  0.00345820    -1.07100
C505        C  0.24801044  0.36964685  0.00022165     1.07500
C506        C  0.22955529  0.51223354  0.86399879     1.10100
C507        C  0.14402689  0.43303645  0.06523704     1.07700
C508        C  0.34301052  0.44081183  0.07268065     1.08100
C509        C  0.34494399  0.57306492  0.92700350     1.07600
C510        C  0.14853594  0.58633419  0.93909287     1.07200
C511        C  0.14043560  0.44126705  0.93844469     1.07600
C512        C  0.33822911  0.44409310  0.92342823     1.07100
H513        H  0.18578376  0.51209511  0.92745357     0.33800
O514        O  0.20343865  0.51131900  0.94924042    -1.28700
H515        H  0.29803970  0.43097043  0.00000258     0.33800
O516        O  0.28204695  0.45359931  0.00099404    -1.30100
C517        C  0.00454070  0.70163635  0.79643199     0.87400
C518        C  0.03823729  0.67770447  0.81286010    -0.52800
C519        C  0.03967586  0.67732878  0.85276322     0.10300
C520        C  0.00722156  0.70069225  0.87244535     0.21300
C521        C  0.96867807  0.68264854  0.81562908    -0.53500
C522        C  0.96927847  0.68248101  0.85524376     0.10400
C523        C  0.00929095  0.74164444  0.81516782    -0.53100
C524        C  0.01146135  0.74181608  0.85452880     0.11000
H525        H  0.05811176  0.66118882  0.79508919     0.15500
H526        H  0.00829912  0.70028117  0.90470770     0.01300
H527        H  0.94594745  0.66754376  0.79923546     0.15800
H528        H  0.01044738  0.76817619  0.79817932     0.15600
C529        C  0.99499087  0.31412967  0.80476778     0.87400
C530        C  0.95693264  0.33262254  0.81846015    -0.52800
C531        C  0.95490406  0.33914501  0.85771900     0.10300
C532        C  0.99145008  0.32606298  0.87977845     0.21300
C533        C  0.02630988  0.34298261  0.82041797    -0.53500
C534        C  0.02474867  0.34839952  0.85967836     0.10400
C535        C  0.99916539  0.27744954  0.82923012    -0.53100
C536        C  0.99771038  0.28362608  0.86828870     0.11000
H537        H  0.93531298  0.34309148  0.79830470     0.15500
H538        H  0.99039808  0.33048073  0.91176625     0.01300
H539        H  0.04708508  0.35908061  0.80274944     0.15800
H540        H  0.00392823  0.24894619  0.81661430     0.15600
C541        C  0.49232437  0.70193120  0.79601817     0.87400
C542        C  0.45614511  0.68428410  0.81639184    -0.52800
C543        C  0.45905082  0.64567368  0.82493173     0.10300
C544        C  0.49775283  0.62801892  0.81198861     0.21300
C545        C  0.52543217  0.69252123  0.82460343    -0.53500
C546        C  0.52858298  0.65392273  0.83217494     0.10400
C547        C  0.49900624  0.67598697  0.76048134    -0.53100
C548        C  0.50201278  0.63746990  0.76854739     0.11000
H549        H  0.43194514  0.70128943  0.82660016     0.15500
H550        H  0.50028836  0.59663965  0.81862312     0.01300
H551        H  0.54462801  0.71414073  0.83800126     0.15800
H552        H  0.50154898  0.68735679  0.73114602     0.15600
C553        C  0.50005645  0.71486751  0.18635919     0.87400
C554        C  0.53437462  0.69791794  0.16370946    -0.52800
C555        C  0.53608489  0.65834672  0.16482400     0.10300
C556        C  0.50226781  0.63894050  0.18760094     0.21300
C557        C  0.46463104  0.69463310  0.16720463    -0.53500
C558        C  0.46561844  0.65500664  0.16753519     0.10400
C559        C  0.50285269  0.69750458  0.22704952    -0.53100
C560        C  0.50411562  0.65820217  0.22822696     0.11000
H561        H  0.55293109  0.71427150  0.14412812     0.15500
H562        H  0.50297671  0.60677694  0.18865375     0.01300
H563        H  0.44185025  0.71029242  0.15255103     0.15800
H564        H  0.50422595  0.71528524  0.25327158     0.15600
C565        C  0.98660860  0.32398680  0.19837887     0.87400
C566        C  0.02351035  0.33969095  0.17803101    -0.52800
C567        C  0.02222535  0.33903671  0.13823105     0.10300
C568        C  0.98290928  0.32296900  0.12224999     0.21300
C569        C  0.95462402  0.34987621  0.18136779    -0.53500
C570        C  0.95258924  0.34897601  0.14158950     0.10400
C571        C  0.97889277  0.28370703  0.18067584    -0.53100
C572        C  0.97636511  0.28274673  0.14119561     0.11000
H573        H  0.04745377  0.35328629  0.19396829     0.15500
H574        H  0.98087165  0.32237866  0.09005830     0.01300
H575        H  0.93656314  0.36901215  0.19832085     0.15800
H576        H  0.97610691  0.25771740  0.19832729     0.15600
C577        C  0.99620897  0.71696068  0.18858299     0.87400
C578        C  0.96416455  0.68772371  0.17551066    -0.52800
C579        C  0.96425255  0.67972060  0.13647970     0.10300
C580        C  0.99735694  0.70054916  0.11413555     0.21300
C581        C  0.03373867  0.69741228  0.17471629    -0.53500
C582        C  0.03461311  0.68912094  0.13593057     0.10400
C583        C  0.99124192  0.75213253  0.16221795    -0.53100
C584        C  0.99110869  0.74371560  0.12341071     0.11000
H585        H  0.94336093  0.67421364  0.19528105     0.15500
H586        H  0.99774676  0.69403680  0.08248296     0.01300
H587        H  0.05607659  0.68709007  0.19410893     0.15800
H588        H  0.98626955  0.78115165  0.17346522     0.15600
C589        C  0.48918039  0.31074675  0.80744155     0.87400
C590        C  0.52453460  0.33267042  0.82514832    -0.52800
C591        C  0.52302414  0.37222350  0.82256546     0.10300
C592        C  0.48591607  0.38655257  0.80196101     0.21300
C593        C  0.45478811  0.32861629  0.82940785    -0.53500
C594        C  0.45244218  0.36817596  0.82623142     0.10400
C595        C  0.48582164  0.32559806  0.76600932    -0.53100
C596        C  0.48420312  0.36474950  0.76235905     0.11000
H597        H  0.54679488  0.31874877  0.84213998     0.15500
H598        H  0.48479966  0.41858734  0.79917219     0.01300
H599        H  0.43551587  0.31185719  0.84821452     0.15800
H600        H  0.48401130  0.30605118  0.74110125     0.15600
C601        C  0.50025746  0.31877796  0.19815870     0.87400
C602        C  0.46740575  0.32904637  0.16952292    -0.52800
C603        C  0.46453839  0.36801998  0.16232807     0.10300
C604        C  0.49560995  0.39290751  0.18359679     0.21300
C605        C  0.53673863  0.33640369  0.17846744    -0.53500
C606        C  0.53430997  0.37509931  0.17109572     0.10400
C607        C  0.49332853  0.34398798  0.23404115    -0.53100
C608        C  0.49009471  0.38252091  0.22657916     0.11000
H609        H  0.44861348  0.30729497  0.15578648     0.15500
H610        H  0.49386005  0.42451645  0.17824284     0.01300
H611        H  0.56040573  0.31962229  0.16679626     0.15800
H612        H  0.49024152  0.33198526  0.26307865     0.15600
O613        O  0.56384830  0.41786933  0.54589267    -0.85600
O614        O  0.45087887  0.49782816  0.37621215    -0.85700
O615        O  0.48141045  0.39031382  0.45253604    -0.87400
O616        O  0.58557558  0.46029909  0.42087002    -0.86200
O617        O  0.60254910  0.52465750  0.42862255    -0.85700
O618        O  0.43342371  0.39843824  0.49839424    -0.87100
O619        O  0.49652002  0.45058520  0.38393181    -0.85600
O620        O  0.55400832  0.40096486  0.48206164    -0.85200
Zr621      Zr  0.51959802  0.45128723  0.45012555     2.84300
O622        O  0.51448851  0.51535626  0.42959917    -1.07200
O623        O  0.49901750  0.44598109  0.51473855    -1.07900
C624        C  0.56475826  0.39341482  0.51691836     1.07500
C625        C  0.47140634  0.46922610  0.36399451     1.07500
C626        C  0.45250769  0.37812988  0.47366685     1.10500
C627        C  0.60980620  0.48974647  0.41810589     1.08200
H628        H  0.43801023  0.45410792  0.43967699     0.33800
O629        O  0.45453454  0.47033097  0.45586391    -1.28100
H630        H  0.58524087  0.48073546  0.48933446     0.33500
O631        O  0.55905302  0.48993288  0.49030460    -1.29800
O632        O  0.42001061  0.60009045  0.44685887    -0.85600
O633        O  0.53475470  0.52289562  0.61582946    -0.87100
O634        O  0.37380459  0.46835455  0.48356186    -0.85600
O635        O  0.54400711  0.58532334  0.40367972    -0.85700
O636        O  0.61546906  0.55067127  0.50681975    -0.85400
O637        O  0.44489610  0.43215829  0.58486670    -0.85200
O638        O  0.40271754  0.55855317  0.56699173    -0.85600
O639        O  0.50885682  0.62934014  0.53653732    -0.85000
O640        O  0.38568924  0.49425263  0.55935792    -0.86100
O641        O  0.55759010  0.62061633  0.49148472    -0.85300
O642        O  0.38294662  0.51497378  0.43659522    -0.85700
O643        O  0.50879483  0.44297156  0.60213119    -0.85400
O644        O  0.60601127  0.50567404  0.55544548    -0.85000
O645        O  0.47999398  0.57420137  0.38753773    -0.85400
O646        O  0.43161646  0.61713974  0.51049356    -0.85700
O647        O  0.49067216  0.57137039  0.60695423    -0.87100
Zr648      Zr  0.45012493  0.53551656  0.43676764     2.83100
Zr649      Zr  0.53846254  0.48463946  0.55484551     2.83500
Zr650      Zr  0.43481738  0.46472084  0.52108201     2.84100
Zr651      Zr  0.55469886  0.55429823  0.46875478     2.83400
Zr652      Zr  0.46980174  0.56871838  0.54002969     2.84200
O653        O  0.53464460  0.54934330  0.53420316    -1.07600
O654        O  0.43002005  0.52925201  0.50109779    -1.07100
C655        C  0.41761471  0.62341931  0.47662697     1.07500
C656        C  0.51453785  0.55204206  0.62774215     1.10100
C657        C  0.36199441  0.49014536  0.45550240     1.07700
C658        C  0.51404642  0.58848398  0.38070241     1.08100
C659        C  0.62717719  0.52981483  0.53568094     1.07600
C660        C  0.47454988  0.42857746  0.60800878     1.07200
C661        C  0.37836284  0.52914908  0.56977199     1.07600
C662        C  0.53825146  0.64119737  0.51582644     1.07100
H663        H  0.46464954  0.50319436  0.58729920     0.33800
O664        O  0.47392317  0.50464243  0.56069650    -1.28700
H665        H  0.49002074  0.60088454  0.46620002     0.33800
O666        O  0.49079869  0.57441209  0.47527129    -1.30100
O667        O  0.07838597  0.93876339  0.04539431    -0.85600
O668        O  0.00006405  0.05400867  0.87638828    -0.85700
O669        O  0.03761124  0.92107777  0.92358823    -0.87400
O670        O  0.10833359  0.02589667  0.95670821    -0.86200
O671        O  0.09994219  0.07471018  0.00172358    -0.85700
O672        O  0.97402847  0.90267633  0.93413689    -0.87100
O673        O  0.05000695  0.01165471  0.88569341    -0.85600
O674        O  0.09420150  0.94756652  0.98113653    -0.85200
Zr675      Zr  0.04703880  0.98758209  0.95178595     2.84300
O676        O  0.02758086  0.05224836  0.95707412    -1.07200
O677        O  0.00745883  0.94862418  0.99120060    -1.07900
C678        C  0.10173338  0.93610824  0.01568668     1.07500
C679        C  0.03028782  0.03532711  0.86496270     1.07500
C680        C  0.00871003  0.89599255  0.92230968     1.10500
C681        C  0.12059012  0.05501253  0.97774559     1.08200
H682        H  0.98171625  0.98194906  0.90453037     0.33800
O683        O  0.98274274  0.99120591  0.93112396    -1.28100
H684        H  0.07909174  0.00813023  0.02574125     0.33500
O685        O  0.05262425  0.00894670  0.01654841    -1.29800
O686        O  0.89775110  0.08532490  0.94692857    -0.85600
O687        O  0.97694380  0.97152457  0.11674807    -0.87100
O688        O  0.91125953  0.96056110  0.90615603    -0.85600
O689        O  0.03096306  0.13253645  0.98248133    -0.85700
O690        O  0.06288387  0.06469914  0.08742462    -0.85400
O691        O  0.94629668  0.89172154  0.00857350    -0.85200
O692        O  0.86732870  0.99999765  0.03758973    -0.85600
O693        O  0.93924284  0.10473739  0.07073675    -0.85000
O694        O  0.87584646  0.95171438  0.99200185    -0.86100
O695        O  0.00333136  0.12182694  0.06094701    -0.85300
O696        O  0.92236540  0.02427109  0.88955876    -0.85700
O697        O  0.99243207  0.90174962  0.05622068    -0.85400
O698        O  0.05348963  0.00067728  0.10393555    -0.85000
O699        O  0.98574014  0.12217539  0.93401823    -0.85400
O700        O  0.88071101  0.07510758  0.01073445    -0.85700
O701        O  0.92906806  0.01649546  0.10890033    -0.87100
Zr702      Zr  0.96250243  0.05561872  0.93714177     2.83100
Zr703      Zr  0.01374018  0.96892021  0.05563010     2.83500
Zr704      Zr  0.94281257  0.95240590  0.97086407     2.84100
Zr705      Zr  0.03276004  0.07294550  0.02213781     2.83400
Zr706      Zr  0.92916916  0.03797762  0.04191171     2.84200
O707        O  0.99374959  0.03334064  0.06176980    -1.07600
O708        O  0.92353882  0.01663127  0.97720007    -1.07100
C709        C  0.87445812  0.08837605  0.97657856     1.07500
C710        C  0.94842237  0.99213845  0.12915758     1.10100
C711        C  0.90814020  0.99012847  0.88305336     1.07700
C712        C  0.01039928  0.14354844  0.95308448     1.08100
C713        C  0.06672014  0.03525887  0.11053717     1.07600
C714        C  0.96797921  0.88032717  0.03698699     1.07200
C715        C  0.85510945  0.97104041  0.01620642     1.07600
C716        C  0.96877637  0.12919203  0.07254264     1.07100
H717        H  0.93194959  0.95648411  0.05260944     0.33800
O718        O  0.94832008  0.97294061  0.03619273    -1.28700
H719        H  0.95913668  0.10325089  0.00177959     0.33800
O720        O  0.96802150  0.07687947  0.00133555    -1.30100
C721        C  0.49331813  0.46818749  0.29572534     0.24500
C722        C  0.46661628  0.45550700  0.32408519    -0.23600
C723        C  0.44355757  0.42216796  0.31735367     0.19400
C724        C  0.44925978  0.39993310  0.28393968     0.24500
C725        C  0.47875586  0.41039396  0.25723328    -0.23500
C726        C  0.49933735  0.44577190  0.26228508     0.19400
F727        F  0.52775845  0.45677849  0.23695753    -0.13500
F728        F  0.51617386  0.50021099  0.30231689    -0.15900
F729        F  0.42738512  0.36698740  0.27876731    -0.15900
F730        F  0.41809445  0.40923922  0.34487428    -0.13500
C731        C  0.49938685  0.38064183  0.65439206     0.24500
C732        C  0.47086620  0.40773404  0.64529399    -0.23600
C733        C  0.44686367  0.42162345  0.67525779     0.19400
C734        C  0.45160310  0.40870238  0.71377710     0.24500
C735        C  0.48072210  0.38206202  0.72282813    -0.23500
C736        C  0.50443361  0.36819803  0.69253630     0.19400
F737        F  0.53347762  0.34319516  0.70004809    -0.13500
F738        F  0.52384637  0.36760580  0.62635337    -0.15900
F739        F  0.42759054  0.42190789  0.74202160    -0.15900
F740        F  0.42047110  0.44930631  0.66761053    -0.13500
C741        C  0.94589676  0.79446775  0.09977923     0.24500
C742        C  0.97997412  0.77307332  0.09426598    -0.23600
C743        C  0.00503444  0.78281728  0.06344392     0.19400
C744        C  0.99828040  0.81594252  0.04115289     0.24500
C745        C  0.96629097  0.83950201  0.04927514    -0.23500
C746        C  0.93932566  0.82771891  0.07770304     0.19400
F747        F  0.90867168  0.85035941  0.08656292    -0.13500
F748        F  0.92007858  0.78432886  0.12808404    -0.15900
F749        F  0.02486717  0.82705442  0.01393377    -0.15900
F750        F  0.03786943  0.76248414  0.05727086    -0.13500
C751        C  0.94161406  0.21756561  0.13342113     0.24500
C752        C  0.96899049  0.24558389  0.11969843    -0.23600
C753        C  0.99171363  0.23643043  0.08727796     0.19400
C754        C  0.98927051  0.19938842  0.07070386     0.24500
C755        C  0.96452530  0.16997504  0.08656801    -0.23500
C756        C  0.93940193  0.18006272  0.11698555     0.19400
F757        F  0.91422798  0.15326229  0.13211480    -0.13500
F758        F  0.91748784  0.22628487  0.16334260    -0.15900
F759        F  0.01240586  0.19204130  0.03959226    -0.15900
F760        F  0.01842861  0.26235771  0.07312584    -0.13500
C761        C  0.47973423  0.64638785  0.29525828     0.24500
C762        C  0.50721001  0.63824631  0.26635052    -0.23600
C763        C  0.53965456  0.61596724  0.27612938     0.19400
C764        C  0.54415300  0.60175585  0.31433371     0.24500
C765        C  0.51625741  0.60982918  0.34317020    -0.23500
C766        C  0.48425964  0.63262281  0.33296313     0.19400
F767        F  0.45626914  0.64058343  0.35950582    -0.13500
F768        F  0.44795249  0.66753671  0.28678749    -0.15900
F769        F  0.57467813  0.57890741  0.32262542    -0.15900
F770        F  0.56719602  0.60858525  0.24892579    -0.13500
C771        C  0.48540426  0.57700615  0.73008461     0.24500
C772        C  0.51068263  0.60882280  0.73749597    -0.23600
C773        C  0.54172708  0.61644352  0.71173750     0.19400
C774        C  0.54516412  0.59523032  0.67718993     0.24500
C775        C  0.51819886  0.56542853  0.66826761    -0.23500
C776        C  0.48897656  0.55560458  0.69542179     0.19400
F777        F  0.46213005  0.52731878  0.68689025    -0.13500
F778        F  0.45535586  0.56880223  0.75458728    -0.15900
F779        F  0.57279157  0.60597978  0.65088135    -0.15900
F780        F  0.56754013  0.64596523  0.71912157    -0.13500
C781        C  0.03924998  0.23074297  0.89382184     0.24500
C782        C  0.00498289  0.25228131  0.89641646    -0.23600
C783        C  0.97630872  0.24144737  0.92349864     0.19400
C784        C  0.98010860  0.20735135  0.94495319     0.24500
C785        C  0.01297509  0.18415986  0.94021007    -0.23500
C786        C  0.04325704  0.19682364  0.91564811     0.19400
F787        F  0.07516554  0.17483085  0.91045774    -0.13500
F788        F  0.06806182  0.24177250  0.86889280    -0.15900
F789        F  0.95034109  0.19528252  0.96825345    -0.15900
F790        F  0.94319414  0.26200165  0.92673895    -0.13500
C791        C  0.04126076  0.84658556  0.87858036     0.24500
C792        C  0.01433878  0.85550582  0.90787400    -0.23600
C793        C  0.99027140  0.82501738  0.92268160     0.19400
C794        C  0.99129751  0.78754106  0.90705239     0.24500
C795        C  0.01621377  0.77926020  0.87613217    -0.23500
C796        C  0.04201732  0.80889957  0.86266706     0.19400
F797        F  0.06726007  0.80166857  0.83322293    -0.13500
F798        F  0.06533509  0.87463682  0.86388098    -0.15900
F799        F  0.96567199  0.76012069  0.92033091    -0.15900
F800        F  0.96460591  0.83152381  0.95189088    -0.13500
C801        C  0.08651009  0.43507854  0.89062175     0.24500
C802        C  0.10923968  0.41858796  0.91979813    -0.23600
C803        C  0.10325653  0.37956001  0.92998359     0.19400
C804        C  0.07506040  0.35696601  0.91079985     0.24500
C805        C  0.05298554  0.37307928  0.88090230    -0.23500
C806        C  0.05863963  0.41231042  0.87098135     0.19400
F807        F  0.03706046  0.42849076  0.84251415    -0.13500
F808        F  0.09218539  0.47278029  0.88042803    -0.15900
F809        F  0.07031937  0.31897910  0.92039062    -0.15900
F810        F  0.12483761  0.36340215  0.95845902    -0.13500
C811        C  0.09300599  0.35518725  0.12652982     0.24500
C812        C  0.05395566  0.35793094  0.11462109    -0.23600
C813        C  0.04556203  0.38229181  0.08307751     0.19400
C814        C  0.07499301  0.40547553  0.06601661     0.24500
C815        C  0.11335689  0.40573847  0.08078449    -0.23500
C816        C  0.12213054  0.37913251  0.11041011     0.19400
F817        F  0.15874748  0.37682445  0.12487788    -0.13500
F818        F  0.10305556  0.32959020  0.15449420    -0.15900
F819        F  0.06566145  0.42786550  0.03515201    -0.15900
F820        F  0.00861866  0.38539178  0.06979688    -0.13500
C821        C  0.09033789  0.59872640  0.11032746     0.24500
C822        C  0.12256360  0.61414470  0.08994197    -0.23600
C823        C  0.12616378  0.65473925  0.08546642     0.19400
C824        C  0.09725400  0.67922871  0.09985186     0.24500
C825        C  0.06469238  0.66357660  0.11937977    -0.23500
C826        C  0.06198193  0.62328185  0.12539612     0.19400
F827        F  0.03187920  0.60775905  0.14614936    -0.13500
F828        F  0.08676232  0.55988702  0.11633688    -0.15900
F829        F  0.10120162  0.71821463  0.09508536    -0.15900
F830        F  0.15706605  0.67057496  0.06614188    -0.13500
C831        C  0.07216477  0.61435718  0.86665875     0.24500
C832        C  0.06775855  0.65407210  0.87502673    -0.23600
C833        C  0.08961938  0.67121761  0.90540111     0.19400
C834        C  0.11592930  0.64913645  0.92659257     0.24500
C835        C  0.11973271  0.60939898  0.91847492    -0.23500
C836        C  0.09773646  0.59218331  0.88846810     0.19400
F837        F  0.10195686  0.55406560  0.87960146    -0.13500
F838        F  0.05120273  0.59682331  0.83782411    -0.15900
F839        F  0.13771435  0.66646321  0.95497667    -0.15900
F840        F  0.08630626  0.70957006  0.91377943    -0.13500
C841        C  0.43197983  0.42479607  0.86802522     0.24500
C842        C  0.42230814  0.39034103  0.84768540    -0.23600
C843        C  0.38400451  0.37525175  0.85047774     0.19400
C844        C  0.35674641  0.39269999  0.87477106     0.24500
C845        C  0.36693382  0.42606353  0.89675304    -0.23500
C846        C  0.40472663  0.44230404  0.89243515     0.19400
F847        F  0.41551051  0.47528620  0.91179452    -0.13500
F848        F  0.46819510  0.44102068  0.86563013    -0.15900
F849        F  0.32067731  0.37603808  0.87750008    -0.15900
F850        F  0.37279747  0.34335587  0.82959156    -0.13500
C851        C  0.41476649  0.58839225  0.90848925     0.24500
C852        C  0.37459079  0.59093474  0.90065980    -0.23600
C853        C  0.36290189  0.61052793  0.86674440     0.19400
C854        C  0.39041682  0.62745603  0.84187467     0.24500
C855        C  0.43024750  0.62515919  0.84994967    -0.23500
C856        C  0.44222930  0.60531490  0.88334946     0.19400
F857        F  0.48048813  0.60369938  0.89273671    -0.13500
F858        F  0.42773920  0.57034816  0.94086898    -0.15900
F859        F  0.37803188  0.64592882  0.80953104    -0.15900
F860        F  0.32475280  0.61330903  0.85715439    -0.13500
C861        C  0.41067894  0.61292189  0.08066688     0.24500
C862        C  0.38006832  0.59215309  0.09876819    -0.23600
C863        C  0.37892705  0.59059433  0.13970689     0.19400
C864        C  0.40768153  0.60974104  0.16211258     0.24500
C865        C  0.43762821  0.63125668  0.14403037    -0.23500
C866        C  0.43888771  0.63276117  0.10310631     0.19400
F867        F  0.46709340  0.65410017  0.08489259    -0.13500
F868        F  0.41221702  0.61548377  0.04128270    -0.15900
F869        F  0.40549127  0.60854350  0.20150447    -0.15900
F870        F  0.34996468  0.57039597  0.15799064    -0.13500
C871        C  0.41277231  0.43600254  0.09396822     0.24500
C872        C  0.37407466  0.42144302  0.09513016    -0.23600
C873        C  0.36575282  0.38836591  0.11790251     0.19400
C874        C  0.39523417  0.37041887  0.13881103     0.24500
C875        C  0.43377133  0.38514099  0.13768391    -0.23500
C876        C  0.44216235  0.41795036  0.11466541     0.19400
F877        F  0.47898703  0.43261058  0.11147855    -0.13500
F878        F  0.42242318  0.46838306  0.07340510    -0.15900
F879        F  0.38556218  0.33939046  0.16127629    -0.15900
F880        F  0.32903988  0.37319481  0.12016314    -0.13500
C881        C  0.62040476  0.43364757  0.13397568     0.24500
C882        C  0.61586702  0.42946128  0.09347891    -0.23600
C883        C  0.58397981  0.40793633  0.07870479     0.19400
C884        C  0.55741491  0.39019501  0.10420875     0.24500
C885        C  0.56185246  0.39475527  0.14460677    -0.23500
C886        C  0.59338415  0.41656089  0.15939391     0.19400
F887        F  0.59829709  0.42073350  0.19837751    -0.13500
F888        F  0.65077609  0.45480010  0.14882558    -0.15900
F889        F  0.52762952  0.36805347  0.08960241    -0.15900
F890        F  0.57936675  0.40298601  0.03976474    -0.13500
C891        C  0.63041489  0.63453273  0.11420221     0.24500
C892        C  0.61979784  0.60073987  0.09319222    -0.23600
C893        C  0.58167416  0.58540788  0.09685683     0.19400
C894        C  0.55471671  0.60356757  0.12076648     0.24500
C895        C  0.56539607  0.63715290  0.14191205    -0.23500
C896        C  0.60371882  0.65216934  0.13871154     0.19400
F897        F  0.61554511  0.68404558  0.15933603    -0.13500
F898        F  0.66641724  0.65118957  0.11050147    -0.15900
F899        F  0.51778091  0.58895112  0.12179503    -0.15900
F900        F  0.57029140  0.55266587  0.07743452    -0.13500
C901        C  0.59194804  0.63149761  0.91886728     0.24500
C902        C  0.61759003  0.60499555  0.90207244    -0.23600
C903        C  0.61479118  0.59605141  0.86232991     0.19400
C904        C  0.58560268  0.61202577  0.83982791     0.24500
C905        C  0.55965465  0.63818219  0.85645469    -0.23500
C906        C  0.56336581  0.64853523  0.89593481     0.19400
F907        F  0.53874065  0.67421487  0.91235915    -0.13500
F908        F  0.59502234  0.64119351  0.95709945    -0.15900
F909        F  0.58296111  0.60234645  0.80158540    -0.15900
F910        F  0.63987135  0.57103407  0.84554916    -0.13500
C911        C  0.58435541  0.41272697  0.82967959     0.24500
C912        C  0.55002985  0.39726007  0.84608176    -0.23600
C913        C  0.54417545  0.40105007  0.88644039     0.19400
C914        C  0.57223948  0.41978383  0.91003523     0.24500
C915        C  0.60758370  0.43367687  0.89394971    -0.23500
C916        C  0.61302177  0.43041545  0.85337932     0.19400
F917        F  0.64622637  0.44437068  0.83661616    -0.13500
F918        F  0.59077492  0.40937006  0.79086239    -0.15900
F919        F  0.56567668  0.42243653  0.94890139    -0.15900
F920        F  0.51185832  0.38512736  0.90326122    -0.13500
C921        C  0.90215044  0.43645701  0.10005524     0.24500
C922        C  0.87258288  0.41859801  0.07752338    -0.23600
C923        C  0.87046076  0.37784109  0.07510946     0.19400
C924        C  0.89688013  0.35523338  0.09550126     0.24500
C925        C  0.92548997  0.37300973  0.11908416    -0.23500
C926        C  0.92825340  0.41376526  0.12091690     0.19400
F927        F  0.95646145  0.43149492  0.14269435    -0.13500
F928        F  0.90490196  0.47575639  0.10294543    -0.15900
F929        F  0.89384872  0.31592822  0.09308936    -0.15900
F930        F  0.84290234  0.35996459  0.05263973    -0.13500
C931        C  0.90629761  0.41588241  0.91941338     0.24500
C932        C  0.86743995  0.41377261  0.90618654    -0.23600
C933        C  0.85745355  0.38595463  0.87739890     0.19400
C934        C  0.88543353  0.36082947  0.86269466     0.24500
C935        C  0.92434312  0.36366647  0.87541257    -0.23500
C936        C  0.93440620  0.39187261  0.90361057     0.19400
F937        F  0.97182554  0.39763343  0.91514267    -0.13500
F938        F  0.91755205  0.44106534  0.94800882    -0.15900
F939        F  0.87421763  0.33341545  0.83623524    -0.15900
F940        F  0.82065222  0.38292063  0.86319903    -0.13500
C941        C  0.91670417  0.60938963  0.92056191     0.24500
C942        C  0.87735935  0.61342628  0.90914233    -0.23600
C943        C  0.86890996  0.64277089  0.88209184     0.19400
C944        C  0.89860509  0.66668018  0.86677656     0.24500
C945        C  0.93775965  0.66166888  0.87725793    -0.23500
C946        C  0.94642433  0.63309749  0.90468953     0.19400
F947        F  0.98389205  0.62668754  0.91481259    -0.13500
F948        F  0.92686263  0.58218671  0.94687961    -0.15900
F949        F  0.88906306  0.69469637  0.84104779    -0.15900
F950        F  0.83195975  0.64817213  0.86965218    -0.13500
C951        C  0.91469873  0.60578127  0.07000841     0.24500
C952        C  0.87523618  0.60941133  0.08043911    -0.23600
C953        C  0.86556770  0.63673200  0.10955784     0.19400
C954        C  0.89444450  0.65975204  0.12726268     0.24500
C955        C  0.93377453  0.65529794  0.11737768    -0.23500
C956        C  0.94358864  0.62820150  0.08855096     0.19400
F957        F  0.98129226  0.62281491  0.07860062    -0.13500
F958        F  0.92564300  0.58078559  0.04157597    -0.15900
F959        F  0.88366650  0.68738998  0.15322796    -0.15900
F960        F  0.82815365  0.64166475  0.12103731    -0.13500
C961        C  0.09860483  0.05969891  0.78416249     0.24500
C962        C  0.08933255  0.02945002  0.75776785    -0.23600
C963        C  0.05441131  0.00808033  0.76267870     0.19400
C964        C  0.03197628  0.01333660  0.79627002     0.24500
C965        C  0.04409692  0.04020961  0.82489399    -0.23500
C966        C  0.07632730  0.06475158  0.81772797     0.19400
F967        F  0.08796851  0.09151098  0.84469036    -0.13500
F968        F  0.13043824  0.08305274  0.77842413    -0.15900
F969        F  0.00037116  0.98985470  0.80253188    -0.15900
F970        F  0.04383473  0.97983013  0.73691332    -0.13500
C971        C  0.11690451  0.01159538  0.15492181     0.24500
C972        C  0.08820633  0.03898525  0.14773395    -0.23600
C973        C  0.07445418  0.06140646  0.17906947     0.19400
C974        C  0.08889184  0.05575847  0.21707040     0.24500
C975        C  0.11687436  0.02727840  0.22421800    -0.23500
C976        C  0.13050633  0.00535706  0.19246385     0.19400
F977        F  0.15659987  0.97684059  0.19787301    -0.13500
F978        F  0.13055580  0.98928937  0.12540489    -0.15900
F979        F  0.07571775  0.07819189  0.24658754    -0.15900
F980        F  0.04594532  0.08739270  0.17321922    -0.13500
C981        C  0.22017593  0.47727857  0.20498055     0.24500
C982        C  0.23057615  0.51126843  0.18463790    -0.23600
C983        C  0.23090583  0.54699298  0.20496054     0.19400
C984        C  0.21869014  0.54894633  0.24359207     0.24500
C985        C  0.20490033  0.51538820  0.26301092    -0.23500
C986        C  0.20857132  0.47921826  0.24379455     0.19400
F987        F  0.20252261  0.44519442  0.26282384    -0.13500
F988        F  0.22133581  0.44180279  0.18763801    -0.15900
F989        F  0.22258426  0.58361358  0.26226128    -0.15900
F990        F  0.24369786  0.58037804  0.18786953    -0.13500
C991        C  0.27806408  0.46630372  0.39075394     0.24500
C992        C  0.25456365  0.49861307  0.39749989    -0.23600
C993        C  0.26312658  0.52369520  0.42873514     0.19400
C994        C  0.29670655  0.51844547  0.45084889     0.24500
C995        C  0.32144578  0.48744534  0.44261226    -0.23500
C996        C  0.31132454  0.46079802  0.41318803     0.19400
F997        F  0.33568529  0.43171632  0.40369393    -0.13500
F998        F  0.26989757  0.44123087  0.36108910    -0.15900
F999        F  0.30701368  0.54563125  0.47790498    -0.15900
F1000       F  0.24113731  0.55531338  0.43543035    -0.13500
C1001       C  0.77369787  0.53649490  0.23805112     0.24500
C1002       C  0.79756670  0.50611839  0.25127091    -0.23600
C1003       C  0.80938306  0.47825055  0.22352241     0.19400
C1004       C  0.79651865  0.47987119  0.18502530     0.24500
C1005       C  0.77183803  0.50938392  0.17261918    -0.23500
C1006       C  0.76092651  0.53794194  0.19943981     0.19400
F1007       F  0.73640027  0.56637319  0.18877716    -0.13500
F1008       F  0.76081142  0.56391267  0.26322900    -0.15900
F1009       F  0.80868106  0.45228349  0.15966260    -0.15900
F1010       F  0.83237131  0.44835351  0.23272876    -0.13500
C1011       C  0.71826314  0.50736774  0.40777766     0.24500
C1012       C  0.72706153  0.48495703  0.37504393    -0.23600
C1013       C  0.69795129  0.45955652  0.35952787     0.19400
C1014       C  0.65983811  0.45958061  0.37412588     0.24500
C1015       C  0.65041543  0.48441018  0.40491670    -0.23500
C1016       C  0.68048563  0.50707240  0.42255192     0.19400
F1017       F  0.67304477  0.53052304  0.45337246    -0.13500
F1018       F  0.74525744  0.53200913  0.42373542    -0.15900
F1019       F  0.63181437  0.43742053  0.35647944    -0.15900
F1020       F  0.70605983  0.43566604  0.32918396    -0.13500
C1021       C  0.88750108  0.96720298  0.77700271     0.24500
C1022       C  0.86434820  0.99903367  0.76747873    -0.23600
C1023       C  0.85252712  0.02418525  0.79726592     0.19400
C1024       C  0.86375429  0.01817939  0.83546335     0.24500
C1025       C  0.88769712  0.98718481  0.84534812    -0.23500
C1026       C  0.89939707  0.96143764  0.81580185     0.19400
F1027       F  0.92384886  0.93220042  0.82407715    -0.13500
F1028       F  0.89800237  0.94155096  0.74900098    -0.15900
F1029       F  0.85314153  0.04443667  0.86279023    -0.15900
F1030       F  0.83009160  0.05513421  0.78925177    -0.13500
C1031       C  0.90869348  0.95880551  0.17952222     0.24500
C1032       C  0.93589453  0.98805729  0.16971098    -0.23600
C1033       C  0.94418607  0.01820390  0.19633976     0.19400
C1034       C  0.92328880  0.02071024  0.23117196     0.24500
C1035       C  0.89357089  0.99338180  0.23928909    -0.23500
C1036       C  0.88753029  0.96149618  0.21413269     0.19400
F1037       F  0.85959862  0.93418655  0.22210789    -0.13500
F1038       F  0.90035871  0.92948792  0.15410192    -0.15900
F1039       F  0.92951186  0.05171737  0.25510534    -0.15900
F1040       F  0.97049532  0.04670037  0.18724103    -0.13500
C1041       C  0.20555252  0.54827425  0.80534071     0.24500
C1042       C  0.21808300  0.51348734  0.82227704    -0.23600
C1043       C  0.21828790  0.47974255  0.79913475     0.19400
C1044       C  0.20634947  0.48063336  0.76035586     0.24500
C1045       C  0.19248931  0.51513146  0.74343386    -0.23500
C1046       C  0.19354023  0.54921017  0.76653161     0.19400
F1047       F  0.18535744  0.58434949  0.75135710    -0.13500
F1048       F  0.20539384  0.58200547  0.82598347    -0.15900
F1049       F  0.21089603  0.44783301  0.73894051    -0.15900
F1050       F  0.23168872  0.44585243  0.81336414    -0.13500
C1051       C  0.29187399  0.55973811  0.63128925     0.24500
C1052       C  0.26275111  0.53290451  0.61838654    -0.23600
C1053       C  0.27087361  0.50880081  0.58672009     0.19400
C1054       C  0.30777953  0.50956055  0.56980832     0.24500
C1055       C  0.33799550  0.53417804  0.58445367    -0.23500
C1056       C  0.32922655  0.56024784  0.61452094     0.19400
F1057       F  0.35728833  0.58445455  0.62924594    -0.13500
F1058       F  0.28452180  0.58477836  0.66089780    -0.15900
F1059       F  0.31420361  0.48482542  0.53973602    -0.15900
F1060       F  0.24406799  0.48218307  0.57390776    -0.13500
C1061       C  0.77537209  0.54689009  0.75104821     0.24500
C1062       C  0.77898228  0.51109532  0.73122117    -0.23600
C1063       C  0.76459121  0.47730367  0.74987715     0.19400
C1064       C  0.75312579  0.47842394  0.78882629     0.24500
C1065       C  0.75463588  0.51361751  0.81004729    -0.23500
C1066       C  0.76427405  0.54805198  0.79005210     0.19400
F1067       F  0.76298927  0.58322262  0.80798156    -0.13500
F1068       F  0.78108967  0.58125695  0.73258146    -0.15900
F1069       F  0.74014154  0.44484847  0.80540700    -0.15900
F1070       F  0.76004529  0.44320169  0.73025116    -0.13500
C1071       C  0.72677172  0.49797815  0.56368685     0.24500
C1072       C  0.73493024  0.52434886  0.59395911    -0.23600
C1073       C  0.71157305  0.55714222  0.59859485     0.19400
C1074       C  0.67853796  0.56162584  0.57553238     0.24500
C1075       C  0.66793447  0.53297768  0.54826652    -0.23500
C1076       C  0.69290297  0.50175934  0.54151574     0.19400
F1077       F  0.68278476  0.47327085  0.51576213    -0.13500
F1078       F  0.74944215  0.46662356  0.55814142    -0.15900
F1079       F  0.65481397  0.59190494  0.58244189    -0.15900
F1080       F  0.71957828  0.58371832  0.62695566    -0.13500
C1081       C  0.02681382  0.29585649  0.29845620     0.24500
C1082       C  0.99387963  0.29792207  0.32257343    -0.23600
C1083       C  0.95966239  0.31344198  0.30697243     0.19400
C1084       C  0.95760150  0.32403739  0.26775540     0.24500
C1085       C  0.99016677  0.32055292  0.24284505    -0.23500
C1086       C  0.02467145  0.30572296  0.25914075     0.19400
F1087       F  0.05612446  0.29824097  0.23663758    -0.13500
F1088       F  0.06100597  0.28255107  0.31228204    -0.15900
F1089       F  0.92255811  0.33507947  0.25422555    -0.15900
F1090       F  0.92757516  0.31802175  0.32949439    -0.13500
C1091       C  0.03219158  0.29612474  0.70058363     0.24500
C1092       C  0.99875375  0.28046872  0.68227052    -0.23600
C1093       C  0.96468337  0.27495556  0.70451863     0.19400
C1094       C  0.96359387  0.28645739  0.74345891     0.24500
C1095       C  0.99647126  0.30409458  0.76147409    -0.23500
C1096       C  0.03148723  0.30640872  0.73985435     0.19400
F1097       F  0.06600290  0.31622595  0.75662177    -0.13500
F1098       F  0.06597221  0.30171475  0.68064794    -0.15900
F1099       F  0.93036836  0.27911643  0.76378583    -0.15900
F1100       F  0.93228714  0.25780254  0.68891850    -0.13500
C1101       C  0.89403746  0.43745768  0.36617187     0.24500
C1102       C  0.85388706  0.43994186  0.37360071    -0.23600
C1103       C  0.83689352  0.41625999  0.40245019     0.19400
C1104       C  0.85950462  0.38982661  0.42281612     0.24500
C1105       C  0.89956512  0.38740282  0.41531682    -0.23500
C1106       C  0.91674633  0.41153870  0.38707257     0.19400
F1107       F  0.95530200  0.40917058  0.37898900    -0.13500
F1108       F  0.91137732  0.46063030  0.33912526    -0.15900
F1109       F  0.84239462  0.36667033  0.45004458    -0.15900
F1110       F  0.79820647  0.41793278  0.41013124    -0.13500
C1111       C  0.87642901  0.45306683  0.59476235     0.24500
C1112       C  0.84469104  0.44194915  0.61831591    -0.23600
C1113       C  0.83921295  0.40242286  0.62735850     0.19400
C1114       C  0.86462032  0.37459228  0.61279022     0.24500
C1115       C  0.89620425  0.38563632  0.58858892    -0.23500
C1116       C  0.90185794  0.42547018  0.58024396     0.19400
F1117       F  0.93224445  0.43827339  0.55814545    -0.13500
F1118       F  0.88404948  0.49096276  0.58671010    -0.15900
F1119       F  0.85800998  0.33686950  0.62253587    -0.15900
F1120       F  0.80884803  0.39053961  0.64996802    -0.13500
C1121       C  0.13819415  0.38835909  0.58792848     0.24500
C1122       C  0.09755664  0.39282844  0.58516179    -0.23600
C1123       C  0.08119611  0.42701159  0.59974596     0.19400
C1124       C  0.10474714  0.45572161  0.61729288     0.24500
C1125       C  0.14533007  0.45186062  0.61888621    -0.23500
C1126       C  0.16188599  0.41780001  0.60444349     0.19400
F1127       F  0.20077977  0.41249921  0.60755038    -0.13500
F1128       F  0.15502330  0.35560700  0.57444034    -0.15900
F1129       F  0.08767238  0.48664543  0.63434583    -0.15900
F1130       F  0.04210601  0.43181013  0.59878573    -0.13500
C1131       C  0.08771976  0.43447588  0.42768631     0.24500
C1132       C  0.08996578  0.39546109  0.41534395    -0.23600
C1133       C  0.11464531  0.38647468  0.38389126     0.19400
C1134       C  0.13579680  0.41565884  0.36494639     0.24500
C1135       C  0.13350013  0.45448791  0.37730801    -0.23500
C1136       C  0.10959193  0.46354252  0.40912654     0.19400
F1137       F  0.10703518  0.50054106  0.42239989    -0.13500
F1138       F  0.06504459  0.44470422  0.45828232    -0.15900
F1139       F  0.15984170  0.40548230  0.33540706    -0.15900
F1140       F  0.11877874  0.34935133  0.37129906    -0.13500
C1141       C  0.08869754  0.06596963  0.61304438     0.24500
C1142       C  0.11753542  0.07551150  0.64048633    -0.23600
C1143       C  0.12915757  0.11457380  0.64560012     0.19400
C1144       C  0.11300509  0.14351431  0.62278974     0.24500
C1145       C  0.08410688  0.13401771  0.59495240    -0.23500
C1146       C  0.07168769  0.09483433  0.59102140     0.19400
F1147       F  0.04230378  0.08414654  0.56656988    -0.13500
F1148       F  0.07696266  0.02853384  0.60714847    -0.15900
F1149       F  0.12540224  0.18080769  0.62858261    -0.15900
F1150       F  0.15506995  0.12499779  0.67378300    -0.13500
C1151       C  0.87443781  0.06901057  0.60451943     0.24500
C1152       C  0.87583738  0.07047315  0.64544410    -0.23600
C1153       C  0.89821942  0.10015563  0.66337138     0.19400
C1154       C  0.91729813  0.12887885  0.64076907     0.24500
C1155       C  0.91537082  0.12765486  0.59972296    -0.23500
C1156       C  0.89455073  0.09679242  0.58195791     0.19400
F1157       F  0.89215396  0.09456509  0.54259841    -0.13500
F1158       F  0.85304865  0.04075226  0.58630613    -0.15900
F1159       F  0.93781107  0.15779409  0.65898064    -0.15900
F1160       F  0.90055209  0.10203318  0.70275600    -0.13500
C1161       C  0.91532646  0.09274360  0.40872751     0.24500
C1162       C  0.91694443  0.13193416  0.39701372    -0.23600
C1163       C  0.90272654  0.14146380  0.35980394     0.19400
C1164       C  0.88523765  0.11290899  0.33615131     0.24500
C1165       C  0.88248558  0.07427378  0.34874284    -0.23500
C1166       C  0.89837129  0.06429283  0.38473672     0.19400
F1167       F  0.89576603  0.02722322  0.39766876    -0.13500
F1168       F  0.92903059  0.08185612  0.44395482    -0.15900
F1169       F  0.87097139  0.12293406  0.30086365    -0.15900
F1170       F  0.90605575  0.17825633  0.34598091    -0.13500
C1171       C  0.09394069  0.10155006  0.41560998     0.24500
C1172       C  0.08328759  0.13749265  0.39994288    -0.23600
C1173       C  0.08976103  0.14451248  0.36005593     0.19400
C1174       C  0.10629373  0.11607512  0.33644110     0.24500
C1175       C  0.11583094  0.08002123  0.35205788    -0.23500
C1176       C  0.11018312  0.07314656  0.39182816     0.19400
F1177       F  0.12152895  0.03926876  0.40782827    -0.13500
F1178       F  0.08981313  0.09432726  0.45419782    -0.15900
F1179       F  0.11418178  0.12420198  0.29863167    -0.15900
F1180       F  0.07959965  0.17864076  0.34372988    -0.13500
C1181       C  0.95659824  0.74313944  0.29008457     0.24500
C1182       C  0.99095215  0.74849842  0.31199000    -0.23600
C1183       C  0.02689635  0.74778060  0.29214104     0.19400
C1184       C  0.02863139  0.73832891  0.25268715     0.24500
C1185       C  0.99452809  0.72859949  0.23162910    -0.23500
C1186       C  0.95839806  0.73444168  0.25028639     0.19400
F1187       F  0.92455455  0.73259753  0.22996586    -0.13500
F1188       F  0.92103875  0.74647421  0.30687134    -0.15900
F1189       F  0.06394260  0.74067827  0.23511318    -0.15900
F1190       F  0.06089481  0.75664616  0.31058562    -0.13500
C1191       C  0.96288858  0.73058555  0.69781237     0.24500
C1192       C  0.99656852  0.73513416  0.67500974    -0.23600
C1193       C  0.03273253  0.72566611  0.69155924     0.19400
C1194       C  0.03503876  0.71183813  0.72955019     0.24500
C1195       C  0.00127399  0.70685535  0.75250517    -0.23500
C1196       C  0.96532948  0.71803596  0.73618087     0.19400
F1197       F  0.93246156  0.71989240  0.75794616    -0.13500
F1198       F  0.92736846  0.73980064  0.68376675    -0.15900
F1199       F  0.07099113  0.70603727  0.74436106    -0.15900
F1200       F  0.06650410  0.73038890  0.67142701    -0.13500
C1201       C  0.10570688  0.57715739  0.37947581     0.24500
C1202       C  0.14621996  0.58288481  0.38031482    -0.23600
C1203       C  0.16233511  0.61583838  0.39883847     0.19400
C1204       C  0.13792349  0.64312790  0.41607234     0.24500
C1205       C  0.09718805  0.63753847  0.41476315    -0.23500
C1206       C  0.08140970  0.60397567  0.39702037     0.19400
F1207       F  0.04228941  0.59773217  0.39569021    -0.13500
F1208       F  0.08960381  0.54576314  0.36108070    -0.04700
F1209       F  0.15399537  0.67431656  0.43489603    -0.15900
F1210       F  0.20152484  0.62161439  0.39994522    -0.13500
C1211       C  0.13921963  0.61915556  0.63176480     0.24500
C1212       C  0.13690227  0.57972156  0.62129648    -0.23600
C1213       C  0.11276563  0.56844936  0.59001126     0.19400
C1214       C  0.08956024  0.59556681  0.57128536     0.24500
C1215       C  0.09160041  0.63528454  0.58180840    -0.23500
C1216       C  0.11755946  0.64668335  0.61186950     0.19400
F1217       F  0.12228585  0.68454510  0.62230838    -0.13500
F1218       F  0.16361347  0.63135100  0.66060005    -0.15900
F1219       F  0.06546781  0.58265716  0.54249141    -0.15900
F1220       F  0.11119831  0.53110612  0.57743520    -0.13500
C1221       C  0.91689442  0.60042460  0.60518890     0.24500
C1222       C  0.89930326  0.62789535  0.58124532    -0.23600
C1223       C  0.85885134  0.62668691  0.57586427     0.19400
C1224       C  0.83609710  0.59839221  0.59430571     0.24500
C1225       C  0.85348488  0.57133563  0.61866577    -0.23500
C1226       C  0.89391676  0.57246461  0.62427829     0.19400
F1227       F  0.91100745  0.54616500  0.64765509    -0.13500
F1228       F  0.95601833  0.60129370  0.61070448    -0.15900
F1229       F  0.79698194  0.59778406  0.58891837    -0.15900
F1230       F  0.84153807  0.65251178  0.55210256    -0.13500
C1231       C  0.89327435  0.58650272  0.42535842     0.24500
C1232       C  0.89024661  0.62605261  0.41517528    -0.23600
C1233       C  0.86137847  0.63593355  0.38790287     0.19400
C1234       C  0.83813777  0.60727184  0.36984193     0.24500
C1235       C  0.84251232  0.56778125  0.37856406    -0.23500
C1236       C  0.86978049  0.55780017  0.40720994     0.19400
F1237       F  0.87530526  0.52005765  0.41638739    -0.13500
F1238       F  0.91918705  0.57524524  0.45263820    -0.15900
F1239       F  0.81132016  0.61833911  0.34338771    -0.15900
F1240       F  0.85569423  0.67345919  0.37789423    -0.13500
C1241       C  0.07637435  0.96007938  0.36714146     0.24500
C1242       C  0.10812246  0.95045560  0.34308672    -0.23600
C1243       C  0.11962900  0.91139548  0.34255409     0.19400
C1244       C  0.10173486  0.88348630  0.36660450     0.24500
C1245       C  0.07125494  0.89331187  0.39224390    -0.23500
C1246       C  0.05843900  0.93207193  0.39156731     0.19400
F1247       F  0.02859485  0.94321411  0.41468132    -0.13500
F1248       F  0.06331979  0.99692542  0.36829124    -0.15900
F1249       F  0.11520663  0.84675181  0.36503475    -0.15900
F1250       F  0.14856839  0.89984207  0.31850893    -0.13500
C1251       C  0.87798119  0.91400631  0.42016234     0.24500
C1252       C  0.89984710  0.88522163  0.40164941    -0.23600
C1253       C  0.90392994  0.88574942  0.36100579     0.19400
C1254       C  0.88709142  0.91510904  0.33924893     0.24500
C1255       C  0.86521494  0.94380240  0.35767846    -0.23500
C1256       C  0.86030285  0.94286345  0.39821347     0.19400
F1257       F  0.83956848  0.97061402  0.41659228    -0.13500
F1258       F  0.87373185  0.91405819  0.45943444    -0.15900
F1259       F  0.89229373  0.91567809  0.30011937    -0.15900
F1260       F  0.92570992  0.85883270  0.34258088    -0.13500
C1261       C  0.91851914  0.92475824  0.59551283     0.24500
C1262       C  0.90660502  0.88527300  0.59740378    -0.23600
C1263       C  0.87701685  0.87460695  0.62410791     0.19400
C1264       C  0.85878042  0.90279669  0.64666449     0.24500
C1265       C  0.87012298  0.94210293  0.64379927    -0.23500
C1266       C  0.90081240  0.95266320  0.61884591     0.19400
F1267       F  0.91277156  0.99029966  0.61574583    -0.13500
F1268       F  0.94723637  0.93676080  0.57093285    -0.15900
F1269       F  0.82992150  0.89162848  0.67148730    -0.15900
F1270       F  0.86498626  0.83702440  0.62811837    -0.13500
C1271       C  0.09835617  0.92027630  0.57995476     0.24500
C1272       C  0.07314839  0.89151497  0.59510988    -0.23600
C1273       C  0.06599356  0.89048451  0.63538531     0.19400
C1274       C  0.08353709  0.91806271  0.66015974     0.24500
C1275       C  0.10889975  0.94660312  0.64510339    -0.23500
C1276       C  0.11648714  0.94741909  0.60488170     0.19400
F1277       F  0.14161607  0.97438316  0.58985827    -0.13500
F1278       F  0.10643922  0.92114784  0.54129165    -0.15900
F1279       F  0.07657882  0.91633817  0.69896743    -0.15900
F1280       F  0.04176483  0.86285802  0.65064394    -0.13500
C1281       C  0.22756496  0.81728148  0.45998600     0.24500
C1282       C  0.25179746  0.81030940  0.49232202    -0.23600
C1283       C  0.23533164  0.79046597  0.52452855     0.19400
C1284       C  0.19625827  0.77876242  0.52475736     0.24500
C1285       C  0.17222996  0.78670019  0.49291137    -0.23500
C1286       C  0.18831668  0.80632213  0.46071757     0.19400
F1287       F  0.16621126  0.81467717  0.42925798    -0.13500
F1288       F  0.24143119  0.83192557  0.42613115    -0.15900
F1289       F  0.18249973  0.75811096  0.55558186    -0.15900
F1290       F  0.25783085  0.77992533  0.55500830    -0.13500
C1291       C  0.39869387  0.72897534  0.45431204     0.24500
C1292       C  0.37287827  0.73779881  0.48469485    -0.23600
C1293       C  0.36053375  0.70820204  0.51006935     0.19400
C1294       C  0.37267993  0.67036799  0.50473119     0.24500
C1295       C  0.39801430  0.66094784  0.47415428    -0.23500
C1296       C  0.41136847  0.69067226  0.44915551     0.19400
F1297       F  0.43815523  0.68315658  0.42132976    -0.13500
F1298       F  0.41118111  0.75718573  0.42954669    -0.15900
F1299       F  0.36102025  0.64292683  0.53077314    -0.15900
F1300       F  0.33652678  0.71608863  0.54038432    -0.13500
C1301       C  0.23981428  0.23299242  0.53085917     0.24500
C1302       C  0.25703943  0.21812936  0.49667447    -0.23600
C1303       C  0.23502306  0.21921899  0.46194779     0.19400
C1304       C  0.19613001  0.23025264  0.46241107     0.24500
C1305       C  0.17838661  0.24266404  0.49716673    -0.23500
C1306       C  0.20101378  0.24428375  0.53127397     0.19400
F1307       F  0.18600823  0.25761785  0.56523937    -0.13500
F1308       F  0.26084575  0.23830955  0.56391991    -0.15900
F1309       F  0.17600891  0.22861992  0.42843510    -0.15900
F1310       F  0.25121305  0.21172017  0.42679010    -0.13500
C1311       C  0.42489391  0.27774202  0.50481830     0.24500
C1312       C  0.39274583  0.27043467  0.48053290    -0.23600
C1313       C  0.38601239  0.29529312  0.44895233     0.19400
C1314       C  0.40914642  0.32867826  0.44373261     0.24500
C1315       C  0.43893612  0.33779278  0.47018059    -0.23500
C1316       C  0.44737624  0.31171723  0.50016350     0.19400
F1317       F  0.47499649  0.32097435  0.52707003    -0.13500
F1318       F  0.43226768  0.25401948  0.53521631    -0.15900
F1319       F  0.40012590  0.35401321  0.41515927    -0.15900
F1320       F  0.35588524  0.28818984  0.42421585    -0.13500
C1321       C  0.70022298  0.31769542  0.02719930     0.24500
C1322       C  0.71181152  0.33486379  0.99179316    -0.23600
C1323       C  0.70959001  0.31250731  0.95754239     0.19400
C1324       C  0.69749390  0.27371263  0.95888993     0.24500
C1325       C  0.68645569  0.25605046  0.99439875    -0.23500
C1326       C  0.68839491  0.27883159  0.02867574     0.19400
F1327       F  0.68211387  0.26365604  0.06444338    -0.13500
F1328       F  0.70098836  0.33815513  0.06110151    -0.15900
F1329       F  0.69966884  0.25252478  0.92554937    -0.15900
F1330       F  0.72065131  0.32746988  0.92267560    -0.13500
C1331       C  0.76917945  0.11038916  0.95423277     0.24500
C1332       C  0.76152194  0.13683544  0.98440749    -0.23600
C1333       C  0.79193871  0.14907931  0.00910799     0.19400
C1334       C  0.82938436  0.13582424  0.00353305     0.24500
C1335       C  0.83743666  0.10900942  0.97380379    -0.23500
C1336       C  0.80692199  0.09606697  0.94930087     0.19400
F1337       F  0.81299529  0.06805726  0.92233550    -0.13500
F1338       F  0.74037101  0.09884006  0.92947529    -0.15900
F1339       F  0.85773448  0.14776144  0.02868905    -0.15900
F1340       F  0.78520017  0.17369608  0.03926872    -0.13500
C1341       C  0.27474587  0.26887661  0.96296217     0.24500
C1342       C  0.28103319  0.24833934  0.99783060    -0.23600
C1343       C  0.26921317  0.26637734  0.03288587     0.19400
C1344       C  0.25784719  0.30520974  0.03364435     0.24500
C1345       C  0.25549902  0.32689462  0.99909572    -0.23500
C1346       C  0.26245582  0.30745435  0.96357585     0.19400
F1347       F  0.25722052  0.32549773  0.92901469    -0.13500
F1348       F  0.27898025  0.25133246  0.92782323    -0.15900
F1349       F  0.24835349  0.32114172  0.06850544    -0.15900
F1350       F  0.26645558  0.24613182  0.06654309    -0.13500
C1351       C  0.17183863  0.09439911  0.94548267     0.24500
C1352       C  0.16135143  0.06804536  0.97469774    -0.23600
C1353       C  0.18696428  0.06199299  0.00588863     0.19400
C1354       C  0.22187522  0.08356852  0.00871145     0.24500
C1355       C  0.23074031  0.11236009  0.98120511    -0.23500
C1356       C  0.20608265  0.11680332  0.94889150     0.19400
F1357       F  0.21411484  0.14429714  0.92171938    -0.13500
F1358       F  0.14711795  0.10089547  0.91554443    -0.15900
F1359       F  0.24513922  0.07897603  0.04017507    -0.15900
F1360       F  0.17680522  0.03728429  0.03501940    -0.13500
C1361       C  0.78502363  0.77080967  0.46433525     0.24500
C1362       C  0.80867873  0.77463126  0.49764065    -0.23600
C1363       C  0.79210790  0.79059625  0.53151290     0.19400
C1364       C  0.75379139  0.80359688  0.53175479     0.24500
C1365       C  0.73092065  0.80284544  0.49754339    -0.23500
C1366       C  0.74677548  0.78429860  0.46441087     0.19400
F1367       F  0.72477076  0.77786131  0.43213936    -0.13500
F1368       F  0.79851889  0.75331824  0.43165111    -0.15900
F1369       F  0.73899959  0.81468229  0.56650824    -0.15900
F1370       F  0.81297221  0.79405110  0.56491232    -0.13500
C1371       C  0.56500440  0.74202865  0.48440703     0.24500
C1372       C  0.59553460  0.75078601  0.51030746    -0.23600
C1373       C  0.60191020  0.72612099  0.54213655     0.19400
C1374       C  0.57986982  0.69189897  0.54647306     0.24500
C1375       C  0.55150075  0.68169861  0.51889569    -0.23500
C1376       C  0.54351118  0.70726426  0.48833218     0.19400
F1377       F  0.51713789  0.69693075  0.46054689    -0.13500
F1378       F  0.55840915  0.76519096  0.45338178    -0.15900
F1379       F  0.58854845  0.66704080  0.57557468    -0.15900
F1380       F  0.63093676  0.73416941  0.56790279    -0.13500
C1381       C  0.72089742  0.71500457  0.96172060     0.24500
C1382       C  0.72542051  0.69439023  0.99665081    -0.23600
C1383       C  0.71953371  0.71430333  0.03208002     0.19400
C1384       C  0.70714956  0.75274564  0.03238663     0.24500
C1385       C  0.69954321  0.77236860  0.99731305    -0.23500
C1386       C  0.70969621  0.75366804  0.96215449     0.19400
F1387       F  0.71117141  0.77310180  0.92795391    -0.13500
F1388       F  0.72789126  0.69820551  0.92665099    -0.15900
F1389       F  0.70430638  0.77111190  0.06726755    -0.15900
F1390       F  0.72614907  0.69696810  0.06675524    -0.13500
C1391       C  0.77034022  0.90743285  0.04418275     0.24500
C1392       C  0.74705625  0.90981620  0.01065923    -0.23600
C1393       C  0.75600059  0.93806040  0.98265141     0.19400
C1394       C  0.78982728  0.96123571  0.98639508     0.24500
C1395       C  0.81434518  0.95734562  0.01888490    -0.23500
C1396       C  0.80358817  0.93129001  0.04840148     0.19400
F1397       F  0.82735915  0.92621610  0.07939003    -0.13500
F1398       F  0.76198599  0.88050986  0.07184599    -0.15900
F1399       F  0.80045563  0.98510103  0.95674033    -0.15900
F1400       F  0.73406488  0.94060039  0.94997021    -0.13500
C1401       C  0.28797411  0.75156219  0.03549756     0.24500
C1402       C  0.29314593  0.77116239  0.99972209    -0.23600
C1403       C  0.28562844  0.75003908  0.96511288     0.19400
C1404       C  0.27542842  0.71066320  0.96622432     0.24500
C1405       C  0.27141019  0.69105555  0.00198719    -0.23500
C1406       C  0.27804926  0.71213363  0.03658168     0.19400
F1407       F  0.27367552  0.69516628  0.07192369    -0.13500
F1408       F  0.28991950  0.77093590  0.06995248    -0.15900
F1409       F  0.26818854  0.69231582  0.93183039    -0.15900
F1410       F  0.28508986  0.76757134  0.92991105    -0.13500
C1411       C  0.15079120  0.88945567  0.04233927     0.24500
C1412       C  0.14185481  0.92193402  0.02000949    -0.23600
C1413       C  0.17170315  0.94001460  0.99774095     0.19400
C1414       C  0.20856344  0.92434237  0.99525126     0.24500
C1415       C  0.21716287  0.89072378  0.01583435    -0.23500
C1416       C  0.18834359  0.87424426  0.04070518     0.19400
F1417       F  0.19624493  0.84292858  0.06292627    -0.13500
F1418       F  0.12283525  0.87116972  0.06382970    -0.15900
F1419       F  0.23478452  0.94071367  0.97038014    -0.15900
F1420       F  0.16482202  0.97238906  0.97676246    -0.13500
C1421       C  0.29280188  0.98033617  0.27383465     0.24500
C1422       C  0.31628700  0.01425757  0.27580265    -0.23600
C1423       C  0.29994074  0.04823003  0.29117013     0.19400
C1424       C  0.26097806  0.04875431  0.30266784     0.24500
C1425       C  0.23719365  0.01466156  0.30125601    -0.23500
C1426       C  0.25399410  0.98055048  0.28614675     0.19400
F1427       F  0.23222811  0.94761821  0.28069609    -0.13500
F1428       F  0.30673277  0.94702274  0.25841742    -0.15900
F1429       F  0.24653932  0.08378938  0.31238900    -0.15900
F1430       F  0.32133664  0.08171246  0.29456111    -0.13500
C1431       C  0.73938262  0.98133610  0.27453233     0.24500
C1432       C  0.75881467  0.01556004  0.28753267    -0.23600
C1433       C  0.73833640  0.05072573  0.28566887     0.19400
C1434       C  0.69918401  0.05085358  0.27481938     0.24500
C1435       C  0.67940754  0.01626928  0.26368983    -0.23500
C1436       C  0.70033994  0.98153882  0.26328125     0.19400
F1437       F  0.68326357  0.94737996  0.25201970    -0.13500
F1438       F  0.75853046  0.94733410  0.27196003    -0.15900
F1439       F  0.68082613  0.08537478  0.27540060    -0.15900
F1440       F  0.75590791  0.08578751  0.29172340    -0.13500
C1441       C  0.43024727  0.90762485  0.41205769     0.24500
C1442       C  0.41502525  0.91169537  0.37427803    -0.23600
C1443       C  0.38144118  0.88990875  0.36384633     0.19400
C1444       C  0.36332202  0.86523715  0.39046176     0.24500
C1445       C  0.37745075  0.86237527  0.42870354    -0.23500
C1446       C  0.41173583  0.88306474  0.43895484     0.19400
F1447       F  0.42682540  0.88079020  0.47528081    -0.13500
F1448       F  0.46299040  0.92740326  0.42318876    -0.15900
F1449       F  0.33174011  0.84399352  0.37852101    -0.15900
F1450       F  0.36517127  0.89306611  0.32804292    -0.13500
C1451       C  0.58731241  0.89092927  0.43877486     0.24500
C1452       C  0.61498669  0.86314305  0.42853691    -0.23600
C1453       C  0.62555999  0.85960465  0.38907369     0.19400
C1454       C  0.60916758  0.88353321  0.36075568     0.24500
C1455       C  0.58170367  0.91179499  0.37119282    -0.23500
C1456       C  0.57086128  0.91465961  0.41067395     0.19400
F1457       F  0.54423726  0.94067127  0.42265391    -0.13500
F1458       F  0.57698212  0.89661261  0.47641000    -0.15900
F1459       F  0.62050314  0.87890685  0.32319074    -0.15900
F1460       F  0.65143036  0.83255956  0.37765762    -0.13500
C1461       C  0.41479495  0.14780808  0.37776359     0.24500
C1462       C  0.41230361  0.10704097  0.37862297    -0.23600
C1463       C  0.38954991  0.08848471  0.40730580     0.19400
C1464       C  0.36927377  0.11055861  0.43459080     0.24500
C1465       C  0.37256669  0.15120584  0.43410468    -0.23500
C1466       C  0.39549223  0.16973084  0.40570643     0.19400
F1467       F  0.39850893  0.20908237  0.40459650    -0.13500
F1468       F  0.43626235  0.16633796  0.35003320    -0.15900
F1469       F  0.34673862  0.09240294  0.46170498    -0.15900
F1470       F  0.38592592  0.04916698  0.40802123    -0.13500
C1471       C  0.46500862  0.21801082  0.23138997     0.24500
C1472       C  0.49979201  0.19731254  0.23424322    -0.23600
C1473       C  0.53533593  0.21755525  0.22800083     0.19400
C1474       C  0.53596931  0.25638369  0.21651650     0.24500
C1475       C  0.50095437  0.27602838  0.20975566    -0.23500
C1476       C  0.46569071  0.25683015  0.21993094     0.19400
F1477       F  0.43154893  0.27594173  0.21970384    -0.13500
F1478       F  0.43000448  0.20099420  0.23978065    -0.15900
F1479       F  0.57117130  0.27479174  0.21455188    -0.15900
F1480       F  0.56996514  0.20011614  0.23337818    -0.13500
C1481       C  0.46306272  0.81220807  0.22139059     0.24500
C1482       C  0.49552822  0.83701051  0.21635614    -0.23600
C1483       C  0.52811072  0.82318546  0.19616661     0.19400
C1484       C  0.52944529  0.78466026  0.18387066     0.24500
C1485       C  0.49736459  0.75891262  0.19017656    -0.23500
C1486       C  0.46385556  0.77387436  0.20830898     0.19400
F1487       F  0.43252239  0.75048685  0.21606690    -0.13500
F1488       F  0.43102391  0.82438331  0.24065988    -0.15900
F1489       F  0.56352604  0.77312679  0.16836201    -0.15900
F1490       F  0.55937722  0.84680676  0.18856276    -0.13500
C1491       C  0.66050823  0.10771385  0.08724713     0.24500
C1492       C  0.64290858  0.12923771  0.05784958    -0.23600
C1493       C  0.60223521  0.13186420  0.05679213     0.19400
C1494       C  0.57937464  0.11408674  0.08534212     0.24500
C1495       C  0.59689986  0.09467072  0.11630394    -0.23500
C1496       C  0.63761344  0.09078677  0.11669126     0.19400
F1497       F  0.65501538  0.07023426  0.14515630    -0.13500
F1498       F  0.69976971  0.10422991  0.08805200    -0.15900
F1499       F  0.54008569  0.11709839  0.08355611    -0.15900
F1500       F  0.58471837  0.15244447  0.02841254    -0.13500
C1501       C  0.62585164  0.93338642  0.11283468     0.24500
C1502       C  0.58540929  0.92750383  0.11503448    -0.23600
C1503       C  0.56697441  0.90021590  0.09026009     0.19400
C1504       C  0.58903372  0.87894400  0.06361734     0.24500
C1505       C  0.62942510  0.88559677  0.06099223    -0.23500
C1506       C  0.64761483  0.91294966  0.08567794     0.19400
F1507       F  0.68663275  0.91952327  0.08380011    -0.13500
F1508       F  0.64418455  0.95936827  0.13679432    -0.15900
F1509       F  0.57101942  0.85254607  0.03989176    -0.15900
F1510       F  0.52795529  0.89356809  0.09257272    -0.13500
C1511       C  0.34621347  0.88076236  0.10190000     0.24500
C1512       C  0.34311589  0.89554628  0.06402465    -0.23600
C1513       C  0.36332075  0.93029609  0.05472193     0.19400
C1514       C  0.38799835  0.94837097  0.08203129     0.24500
C1515       C  0.39260804  0.93230368  0.11933688    -0.23500
C1516       C  0.37109093  0.89841648  0.12894418     0.19400
F1517       F  0.37459296  0.88158013  0.16436007    -0.13500
F1518       F  0.32466060  0.84924125  0.11309457    -0.15900
F1519       F  0.40709742  0.98175529  0.07191174    -0.15900
F1520       F  0.36013662  0.94652305  0.01904424    -0.13500
C1521       C  0.33537072  0.13691753  0.10330009     0.24500
C1522       C  0.34235680  0.13094220  0.06338951    -0.23600
C1523       C  0.37390287  0.10797466  0.05247541     0.19400
C1524       C  0.39841856  0.09209637  0.08051141     0.24500
C1525       C  0.39191770  0.09816225  0.12070518    -0.23500
C1526       C  0.35947698  0.12047801  0.13158583     0.19400
F1527       F  0.35073932  0.12652736  0.16962525    -0.13500
F1528       F  0.30480463  0.15840980  0.11503443    -0.15900
F1529       F  0.42899606  0.07120845  0.06780309    -0.15900
F1530       F  0.38232040  0.10210688  0.01438148    -0.13500
C1531       C  0.75458793  0.22622887  0.46865812     0.24500
C1532       C  0.73639690  0.21141912  0.50253303    -0.23600
C1533       C  0.75869237  0.21043648  0.53705470     0.19400
C1534       C  0.79811895  0.22087935  0.53685962     0.24500
C1535       C  0.81650138  0.23364063  0.50245714    -0.23500
C1536       C  0.79413695  0.23604794  0.46831980     0.19400
F1537       F  0.80996863  0.24933344  0.43457615    -0.13500
F1538       F  0.73378835  0.23355648  0.43607229    -0.15900
F1539       F  0.81794642  0.21902518  0.57093166    -0.15900
F1540       F  0.74233508  0.20190382  0.57196693    -0.13500
C1541       C  0.60470391  0.17814931  0.40036529     0.24500
C1542       C  0.61331307  0.16292485  0.43700540    -0.23600
C1543       C  0.60640179  0.12318711  0.44383356     0.19400
C1544       C  0.58963650  0.09932437  0.41501686     0.24500
C1545       C  0.58103528  0.11439560  0.37800744    -0.23500
C1546       C  0.58874205  0.15418061  0.37109135     0.19400
F1547       F  0.58031792  0.17010632  0.33615295    -0.13500
F1548       F  0.61257479  0.21613194  0.39270096    -0.15900
F1549       F  0.58325425  0.06112336  0.42296245    -0.15900
F1550       F  0.61778699  0.10696702  0.47774931    -0.13500
C1551       C  0.57883166  0.28648751  0.49629260     0.24500
C1552       C  0.61071368  0.27824438  0.51978788    -0.23600
C1553       C  0.62317411  0.30609133  0.54777643     0.19400
C1554       C  0.60657315  0.34301027  0.54927000     0.24500
C1555       C  0.57773967  0.35278567  0.52236297    -0.23500
C1556       C  0.56275438  0.32325725  0.49731417     0.19400
F1557       F  0.53340218  0.33030855  0.47216081    -0.13500
F1558       F  0.56507907  0.26013959  0.46989636    -0.15900
F1559       F  0.62032017  0.36967133  0.57532403    -0.15900
F1560       F  0.65223567  0.29790865  0.57295773    -0.13500
C1561       C  0.24225814  0.97369533  0.72695135     0.24500
C1562       C  0.22576225  0.00845446  0.71368013    -0.23600
C1563       C  0.24830097  0.04301846  0.71740687     0.19400
C1564       C  0.28762974  0.04194679  0.72687749     0.24500
C1565       C  0.30523342  0.00657389  0.73611199    -0.23500
C1566       C  0.28156463  0.97268309  0.73758887     0.19400
F1567       F  0.29615027  0.93851132  0.74978133    -0.13500
F1568       F  0.22019100  0.94080069  0.73104347    -0.15900
F1569       F  0.30831056  0.07600263  0.72655426    -0.15900
F1570       F  0.23227997  0.07844023  0.71352201    -0.13500
C1571       C  0.68442277  0.97487735  0.70186263     0.24500
C1572       C  0.66781542  0.00908847  0.71637517    -0.23600
C1573       C  0.69069615  0.04349811  0.71628116     0.19400
C1574       C  0.72919100  0.04347284  0.70299142     0.24500
C1575       C  0.74626506  0.00912131  0.68880568    -0.23500
C1576       C  0.72314235  0.97457884  0.68953366     0.19400
F1577       F  0.73824886  0.93939704  0.68159652    -0.13500
F1578       F  0.66364437  0.94089263  0.70040337    -0.15900
F1579       F  0.75068464  0.07675461  0.70723849    -0.15900
F1580       F  0.67660645  0.07717296  0.73071407    -0.13500
C1581       C  0.38067140  0.14069845  0.63218405     0.24500
C1582       C  0.40506852  0.10983874  0.62160630    -0.23600
C1583       C  0.41392840  0.10481612  0.58174239     0.19400
C1584       C  0.39875648  0.12941674  0.55362242     0.24500
C1585       C  0.37393606  0.15959502  0.56418706    -0.23500
C1586       C  0.36530392  0.16513318  0.60381782     0.19400
F1587       F  0.34222474  0.19459782  0.61524633    -0.13500
F1588       F  0.37138715  0.14744507  0.66997435    -0.15900
F1589       F  0.40734182  0.12243253  0.51575840    -0.15900
F1590       F  0.43711840  0.07580526  0.56940615    -0.13500
C1591       C  0.57779389  0.13462508  0.55598887     0.24500
C1592       C  0.61330413  0.15369121  0.56541383    -0.23600
C1593       C  0.62779631  0.15065569  0.60351756     0.19400
C1594       C  0.60841449  0.12775456  0.63089937     0.24500
C1595       C  0.57362073  0.10766739  0.62110292    -0.23500
C1596       C  0.55834876  0.11166961  0.58346190     0.19400
F1597       F  0.52417451  0.09390299  0.57324935    -0.13500
F1598       F  0.56175987  0.13740518  0.52014393    -0.15900
F1599       F  0.62422209  0.12502581  0.66695396    -0.15900
F1600       F  0.66030109  0.17076381  0.61487452    -0.13500
C1601       C  0.56731508  0.87465724  0.61256973     0.24500
C1602       C  0.57196034  0.91527378  0.61378926    -0.23600
C1603       C  0.59667179  0.93373626  0.58662916     0.19400
C1604       C  0.61742011  0.91166524  0.55947487     0.24500
C1605       C  0.61309292  0.87097713  0.55870592    -0.23500
C1606       C  0.58754018  0.85272781  0.58511506     0.19400
F1607       F  0.58277194  0.81350208  0.58480070    -0.13500
F1608       F  0.54267532  0.85629756  0.63769829    -0.15900
F1609       F  0.64130110  0.92996415  0.53361992    -0.15900
F1610       F  0.60148348  0.97297269  0.58713628    -0.13500
C1611       C  0.38684169  0.84258944  0.59240210     0.24500
C1612       C  0.37512616  0.85835448  0.55692591    -0.23600
C1613       C  0.37893017  0.89861236  0.55108448     0.19400
C1614       C  0.39473804  0.92274761  0.58015885     0.24500
C1615       C  0.40550657  0.90720794  0.61630726    -0.23500
C1616       C  0.40161343  0.86680865  0.62202650     0.19400
F1617       F  0.41263082  0.85065757  0.65610977    -0.13500
F1618       F  0.38302723  0.80382433  0.59866284    -0.15900
F1619       F  0.39814432  0.96150591  0.57343103    -0.15900
F1620       F  0.36593831  0.91476018  0.51771055    -0.13500
C1621       C  0.45520939  0.24448759  0.80037945     0.24500
C1622       C  0.49022884  0.26618691  0.80599439    -0.23600
C1623       C  0.52555700  0.24699010  0.79867600     0.19400
C1624       C  0.52573352  0.20808266  0.78648772     0.24500
C1625       C  0.49064072  0.18700759  0.78013546    -0.23500
C1626       C  0.45545824  0.20563343  0.78851322     0.19400
F1627       F  0.42059291  0.18681985  0.78413038    -0.13500
F1628       F  0.42001756  0.26130485  0.80350972    -0.15900
F1629       F  0.56067098  0.19166893  0.77973478    -0.15900
F1630       F  0.56035869  0.26622679  0.80055139    -0.13500
C1631       C  0.52516771  0.76661271  0.77812239     0.24500
C1632       C  0.49049011  0.74467854  0.78409717    -0.23600
C1633       C  0.45513288  0.76175079  0.77311971     0.19400
C1634       C  0.45408513  0.80086916  0.76217831     0.24500
C1635       C  0.48845194  0.82388932  0.76063406    -0.23500
C1636       C  0.52417061  0.80570384  0.76771604     0.19400
F1637       F  0.55864899  0.82550793  0.76476212    -0.13500
F1638       F  0.56055346  0.75012216  0.78108031    -0.15900
F1639       F  0.41925082  0.81585774  0.75242274    -0.15900
F1640       F  0.42156312  0.74039500  0.77097742    -0.13500
C1641       C  0.33326980  0.10786742  0.90736298     0.24500
C1642       C  0.35119559  0.13442670  0.93317022    -0.23600
C1643       C  0.39187498  0.13969826  0.93214105     0.19400
C1644       C  0.41430383  0.11820707  0.90589929     0.24500
C1645       C  0.39613061  0.09229030  0.87953158    -0.23500
C1646       C  0.35546731  0.08739851  0.88040199     0.19400
F1647       F  0.33732057  0.06222425  0.85546851    -0.13500
F1648       F  0.29408752  0.10205788  0.90801589    -0.15900
F1649       F  0.45359182  0.12328272  0.90559179    -0.15900
F1650       F  0.40986562  0.16487241  0.95714530    -0.13500
C1651       C  0.34415434  0.92607187  0.87226492     0.24500
C1652       C  0.38475523  0.92874690  0.87806949    -0.23600
C1653       C  0.40001513  0.91736844  0.91414025     0.19400
C1654       C  0.37563673  0.90136735  0.94269542     0.24500
C1655       C  0.33532235  0.89789860  0.93656186    -0.23500
C1656       C  0.31963126  0.91086702  0.90140552     0.19400
F1657       F  0.28074683  0.90766404  0.89486788    -0.13500
F1658       F  0.32819174  0.93852583  0.83857410    -0.15900
F1659       F  0.39170618  0.88739633  0.97569691    -0.15900
F1660       F  0.43885160  0.92006216  0.92118871    -0.13500
C1661       C  0.61668811  0.89294712  0.86207013     0.24500
C1662       C  0.58734094  0.91921600  0.87244788    -0.23600
C1663       C  0.58214014  0.92795983  0.91228961     0.19400
C1664       C  0.60542148  0.91126503  0.94062737     0.24500
C1665       C  0.63525209  0.88602062  0.93018836    -0.23500
C1666       C  0.64056930  0.87692798  0.89057897     0.19400
F1667       F  0.66939065  0.85297728  0.87927274    -0.13500
F1668       F  0.62252239  0.88254947  0.82438520    -0.15900
F1669       F  0.59761588  0.91896530  0.97853896    -0.15900
F1670       F  0.55439106  0.95276640  0.92436025    -0.13500
C1671       C  0.61287386  0.12417172  0.86489530     0.24500
C1672       C  0.58946786  0.09174408  0.87562374    -0.23600
C1673       C  0.58970905  0.07960407  0.91472923     0.19400
C1674       C  0.61244441  0.09960581  0.94230861     0.24500
C1675       C  0.63539884  0.13201504  0.93139086    -0.23500
C1676       C  0.63558264  0.14388037  0.89242997     0.19400
F1677       F  0.65820722  0.17449002  0.88076622    -0.13500
F1678       F  0.61353030  0.13755103  0.82780961    -0.15900
F1679       F  0.61095190  0.08787949  0.97988135    -0.15900
F1680       F  0.56809230  0.04833386  0.92647896    -0.13500
loop_ 
_geom_bond_atom_site_label_1 
_geom_bond_atom_site_label_2 
_geom_bond_distance 
_geom_bond_site_symmetry_2 
_ccdc_geom_bond_type 
O1          Zr37   2.441       .  S
O1           C12   1.293       .  A
O2          Zr36   2.439       .  S
O2           C13   1.293       .  A
O3           Zr9   2.443       .  S
O3           C14   1.293       .  A
O4           Zr9   2.452       .  S
O4           C15   1.295       .  A
O5          Zr39   2.447       .  S
O5           C15   1.294       .  A
O6          Zr38   2.442       .  S
O6           C14   1.294   1_565  A
O7           Zr9   2.410       .  S
O7           C13   1.288       .  A
O8           Zr9   2.416       .  S
O8           C12   1.288       .  A
Zr9          O10   2.338       .  S
Zr9          O11   2.338       .  S
Zr9          O19   2.332       .  S
Zr9          O17   2.339       .  S
O10         Zr36   2.344       .  S
O10         Zr39   2.332       .  S
O11         Zr37   2.345       .  S
O11         Zr38   2.340   1_545  S
C12        C1672   1.484       .  S
C13        C1595   1.476       .  S
C14        C1572   1.492       .  S
C15        C1625   1.499       .  S
H16          O17   0.964       .  S
O17         Zr36   2.319       .  S
O17         Zr38   2.337   1_545  S
H18          O19   0.965       .  S
O19         Zr37   2.319       .  S
O19         Zr39   2.339       .  S
O20         Zr36   2.429   1_565  S
O20          C43   1.291       .  A
O21         Zr37   2.431   1_565  S
O21          C44   1.291       .  A
O22         Zr38   2.443       .  S
O22          C45   1.293       .  A
O23         Zr39   2.449       .  S
O23          C46   1.294       .  A
O24         Zr39   2.432       .  S
O24          C47   1.291       .  A
O25         Zr38   2.439       .  S
O25          C48   1.293       .  A
O26         Zr40   2.461       .  S
O26          C49   1.297       .  A
O27         Zr40   2.444       .  S
O27          C50   1.294   1_565  A
O28         Zr38   2.431       .  S
O28          C49   1.291       .  A
O29         Zr39   2.431       .  S
O29          C50   1.292       .  A
O30         Zr36   2.449   1_565  S
O30          C45   1.293       .  A
O31         Zr37   2.440   1_565  S
O31          C48   1.293       .  A
O32         Zr37   2.456       .  S
O32          C47   1.295       .  A
O33         Zr36   2.438       .  S
O33          C46   1.292       .  A
O34         Zr40   2.453       .  S
O34          C43   1.296       .  A
O35         Zr40   2.459       .  S
O35          C44   1.296       .  A
Zr36         O42   2.345   1_545  S
Zr36         O54   2.335       .  S
Zr37         O41   2.338       .  S
Zr37         O52   2.337   1_545  S
Zr38         O42   2.335       .  S
Zr38         O52   2.352       .  S
Zr39         O41   2.335       .  S
Zr39         O54   2.349       .  S
Zr40         O41   2.337   1_565  S
Zr40         O42   2.339       .  S
Zr40         O54   2.357   1_565  S
Zr40         O52   2.349       .  S
C43        C1615   1.483       .  S
C44        C1652   1.485       .  S
C45        C1602   1.477       .  S
C46        C1582   1.499       .  S
C47        C1645   1.474       .  S
C48        C1662   1.495       .  S
C49        C1635   1.496       .  S
C50        C1565   1.489       .  S
H51          O52   0.965       .  S
H53          O54   0.962       .  S
C55          C56   1.542       .  S
C55          C61   1.526       .  S
C55          C59   1.537       .  S
C55        C1532   1.525       .  S
C56          H63   1.083       .  S
C56          C57   1.371       .  D
C57          C58   1.537       .  S
C57        C1592   1.486       .  S
C58          C62   1.545       .  S
C58          C60   1.547       .  S
C58          H64   1.107       .  S
C59          H65   1.086       .  S
C59          C60   1.362       .  D
C60        C1542   1.481       .  S
C61          H66   1.087       .  S
C61          C62   1.359       .  D
C62        C1552   1.488       .  S
O67        Zr103   2.459       .  S
O67          C78   1.297       .  A
O68        Zr102   2.420       .  S
O68          C79   1.290       .  A
O69         Zr75   2.447       .  S
O69          C80   1.294       .  A
O70         Zr75   2.454   1_565  S
O70          C81   1.296       .  A
O71        Zr105   2.435       .  S
O71          C81   1.291       .  A
O72        Zr104   2.427       .  S
O72          C80   1.291       .  A
O73         Zr75   2.437   1_565  S
O73          C79   1.292       .  A
O74         Zr75   2.434       .  S
O74          C78   1.292       .  A
Zr75         O76   2.338   1_545  S
Zr75         O77   2.346       .  S
Zr75         O85   2.330       .  S
Zr75         O83   2.329       .  S
O76        Zr102   2.337       .  S
O76        Zr105   2.334       .  S
O77        Zr103   2.334       .  S
O77        Zr104   2.340       .  S
C78        C1545   1.490       .  S
C79        C1442   1.482       .  S
C80        C1462   1.469       .  S
C81        C1455   1.499       .  S
H82          O83   0.964       .  S
O83        Zr102   2.334   1_545  S
O83        Zr104   2.348       .  S
H84          O85   0.962       .  S
O85        Zr103   2.345       .  S
O85        Zr105   2.340   1_545  S
O86        Zr102   2.426       .  S
O86         C109   1.291       .  A
O87        Zr103   2.454       .  S
O87         C110   1.295       .  A
O88        Zr104   2.437       .  S
O88         C111   1.293       .  A
O89        Zr105   2.419       .  S
O89         C112   1.289       .  A
O90        Zr105   2.439       .  S
O90         C113   1.292   1_565  A
O91        Zr104   2.437       .  S
O91         C114   1.293       .  A
O92        Zr106   2.456       .  S
O92         C115   1.296       .  A
O93        Zr106   2.450   1_565  S
O93         C116   1.294       .  A
O94        Zr104   2.456       .  S
O94         C115   1.295       .  A
O95        Zr105   2.426       .  S
O95         C116   1.290       .  A
O96        Zr102   2.446       .  S
O96         C111   1.294   1_565  A
O97        Zr103   2.432       .  S
O97         C114   1.292       .  A
O98        Zr103   2.437       .  S
O98         C113   1.293       .  A
O99        Zr102   2.440       .  S
O99         C112   1.293       .  A
O100       Zr106   2.436   1_565  S
O100        C109   1.292       .  A
O101       Zr106   2.421       .  S
O101        C110   1.290       .  A
Zr102       O108   2.334   1_565  S
Zr102       O120   2.333       .  S
Zr103       O107   2.335       .  S
Zr103       O118   2.358       .  S
Zr104       O108   2.330       .  S
Zr104       O118   2.347       .  S
Zr105       O107   2.331   1_565  S
Zr105       O120   2.345       .  S
Zr106       O107   2.351       .  S
Zr106       O108   2.337       .  S
Zr106       O120   2.319   1_545  S
Zr106       O118   2.336       .  S
C109       C1515   1.483       .  S
C110       C1495   1.472       .  S
C111       C1422   1.490       .  S
C112       C1482   1.476       .  S
C113       C1435   1.491       .  S
C114       C1472   1.489       .  S
C115       C1525   1.509       .  S
C116       C1502   1.467       .  S
H117        O118   0.963       .  S
H119        O120   0.966       .  S
C121        C122   1.537       .  S
C121        C127   1.522   1_556  S
C121        C125   1.538   1_556  S
C121       C1402   1.525       .  S
C122        H129   1.085       .  S
C122        C123   1.365       .  D
C123        C124   1.548   1_556  S
C123       C1655   1.480       .  S
C124        C128   1.550       .  S
C124        C126   1.539       .  S
C124        H130   1.108       .  S
C125        H131   1.085       .  S
C125        C126   1.369       .  D
C126       C1512   1.486       .  S
C127        H132   1.086       .  S
C127        C128   1.357       .  D
C128       C1415   1.488       .  S
C133        C134   1.547   1_556  S
C133        C139   1.531   1_556  S
C133        C137   1.543       .  S
C133       C1385   1.531       .  S
C134        H141   1.085       .  S
C134        C135   1.367       .  D
C135        C136   1.534   1_554  S
C135       C1505   1.472       .  S
C136        C140   1.533   1_556  S
C136        C138   1.543       .  S
C136        H142   1.111       .  S
C137        H143   1.084       .  S
C137        C138   1.366       .  D
C138       C1665   1.490       .  S
C139        H144   1.087       .  S
C139        C140   1.360       .  D
C140       C1392   1.480       .  S
C145        C146   1.544       .  S
C145        C151   1.527       .  S
C145        C149   1.555       .  S
C145       C1365   1.542       .  S
C146        H153   1.085       .  S
C146        C147   1.373       .  D
C147        C148   1.548       .  S
C147       C1452   1.497       .  S
C148        C152   1.534       .  S
C148        C150   1.533       .  S
C148        H154   1.110       .  S
C149        H155   1.082       .  S
C149        C150   1.369       .  D
C150       C1605   1.482       .  S
C151        H156   1.087       .  S
C151        C152   1.358       .  D
C152       C1372   1.479       .  S
C157        C158   1.548   1_556  S
C157        C163   1.529       .  S
C157        C161   1.552       .  S
C157       C1342   1.541       .  S
C158        H165   1.085       .  S
C158        C159   1.370       .  D
C159        C160   1.544   1_554  S
C159       C1522   1.498       .  S
C160        C164   1.537       .  S
C160        C162   1.535       .  S
C160        H166   1.111       .  S
C161        H167   1.085       .  S
C161        C162   1.371       .  D
C162       C1642   1.481       .  S
C163        H168   1.087       .  S
C163        C164   1.359       .  D
C164       C1355   1.480       .  S
C169        C170   1.535       .  S
C169        C175   1.521       .  S
C169        C173   1.539   1_556  S
C169       C1325   1.521       .  S
C170        H177   1.086       .  S
C170        C171   1.368       .  D
C171        C172   1.541       .  S
C171       C1675   1.478       .  S
C172        C176   1.541       .  S
C172        C174   1.540   1_556  S
C172        H178   1.110       .  S
C173        H179   1.083       .  S
C173        C174   1.365       .  D
C174       C1492   1.472       .  S
C175        H180   1.088       .  S
C175        C176   1.354       .  D
C176       C1332   1.478       .  S
C181        C182   1.547       .  S
C181        C187   1.530       .  S
C181        C185   1.543       .  S
C181       C1302   1.533       .  S
C182        H189   1.084       .  S
C182        C183   1.364       .  D
C183        C184   1.530       .  S
C183       C1465   1.468       .  S
C184        C188   1.533       .  S
C184        C186   1.544       .  S
C184        H190   1.111       .  S
C185        H191   1.085       .  S
C185        C186   1.369       .  D
C186       C1585   1.491       .  S
C187        H192   1.087       .  S
C187        C188   1.362       .  D
C188       C1312   1.478       .  S
C193        C194   1.534       .  S
C193        C199   1.520       .  S
C193        C197   1.539       .  S
C193       C1282   1.525       .  S
C194        H201   1.087       .  S
C194        C195   1.365       .  D
C195        C196   1.548       .  S
C195       C1612   1.478       .  S
C196        C200   1.543       .  S
C196        C198   1.542       .  S
C196        H202   1.109       .  S
C197        H203   1.080       .  S
C197        C198   1.370       .  D
C198       C1445   1.485       .  S
C199        H204   1.088       .  S
C199        C200   1.354       .  D
C200       C1292   1.479       .  S
O205       Zr241   2.451       .  S
O205        C216   1.295       .  A
O206       Zr240   2.418       .  S
O206        C217   1.288   1_455  A
O207       Zr213   2.427       .  S
O207        C218   1.290       .  A
O208       Zr213   2.434       .  S
O208        C219   1.292       .  A
O209       Zr243   2.442       .  S
O209        C219   1.293       .  A
O210       Zr242   2.431       .  S
O210        C218   1.290       .  A
O211       Zr213   2.451       .  S
O211        C217   1.295       .  A
O212       Zr213   2.452       .  S
O212        C216   1.295       .  A
Zr213       O214   2.338       .  S
Zr213       O215   2.337       .  S
Zr213       O223   2.342       .  S
Zr213       O221   2.342       .  S
O214       Zr240   2.336   1_655  S
O214       Zr243   2.347       .  S
O215       Zr241   2.336       .  S
O215       Zr242   2.346       .  S
C216       C1362   1.498       .  S
C217       C1192   1.487       .  S
C218       C1222   1.461       .  S
C219       C1262   1.492       .  S
H220        O221   0.964       .  S
O221       Zr240   2.338   1_655  S
O221       Zr242   2.325       .  S
H222        O223   0.963       .  S
O223       Zr241   2.348       .  S
O223       Zr243   2.339       .  S
O224       Zr240   2.429       .  S
O224        C247   1.291       .  A
O225       Zr241   2.450       .  S
O225        C248   1.295       .  A
O226       Zr242   2.450   1_455  S
O226        C249   1.294       .  A
O227       Zr243   2.451   1_455  S
O227        C250   1.294       .  A
O228       Zr243   2.437       .  S
O228        C251   1.292       .  A
O229       Zr242   2.453       .  S
O229        C252   1.295       .  A
O230       Zr244   2.439       .  S
O230        C253   1.292       .  A
O231       Zr244   2.450       .  S
O231        C254   1.295       .  A
O232       Zr242   2.434   1_455  S
O232        C253   1.292       .  A
O233       Zr243   2.471   1_455  S
O233        C254   1.298       .  A
O234       Zr240   2.445       .  S
O234        C249   1.293       .  A
O235       Zr241   2.445       .  S
O235        C252   1.294       .  A
O236       Zr241   2.443       .  S
O236        C251   1.293       .  A
O237       Zr240   2.432       .  S
O237        C250   1.291       .  A
O238       Zr244   2.429       .  S
O238        C247   1.291       .  A
O239       Zr244   2.427       .  S
O239        C248   1.291   1_455  A
Zr240       O246   2.328       .  S
Zr240       O258   2.346       .  S
Zr241       O245   2.340       .  S
Zr241       O256   2.354       .  S
Zr242       O246   2.339   1_655  S
Zr242       O256   2.341       .  S
Zr243       O245   2.341       .  S
Zr243       O258   2.330   1_655  S
Zr244       O245   2.330   1_455  S
Zr244       O246   2.332       .  S
Zr244       O258   2.340       .  S
Zr244       O256   2.354   1_455  S
C247       C1285   1.478       .  S
C248       C1182   1.492       .  S
C249       C1215   1.499       .  S
C250       C1272   1.473       .  S
C251       C1252   1.472       .  S
C252       C1232   1.502       .  S
C253       C1205   1.472       .  S
C254       C1245   1.512       .  S
H255        O256   0.961       .  S
H257        O258   0.963       .  S
O259       Zr295   2.424       .  S
O259        C270   1.290       .  A
O260       Zr294   2.434       .  S
O260        C271   1.292   1_455  A
O261       Zr267   2.456       .  S
O261        C272   1.295       .  A
O262       Zr267   2.442       .  S
O262        C273   1.293       .  A
O263       Zr297   2.439       .  S
O263        C273   1.293       .  A
O264       Zr296   2.473       .  S
O264        C272   1.299       .  A
O265       Zr267   2.420       .  S
O265        C271   1.289       .  A
O266       Zr267   2.428       .  S
O266        C270   1.291       .  A
Zr267       O268   2.344       .  S
Zr267       O269   2.340       .  S
Zr267       O277   2.339       .  S
Zr267       O275   2.329       .  S
O268       Zr294   2.341   1_655  S
O268       Zr297   2.335       .  S
O269       Zr295   2.343       .  S
O269       Zr296   2.332       .  S
C270       C1535   1.484       .  S
C271       C1092   1.483       .  S
C272       C1155   1.495       .  S
C273       C1115   1.494       .  S
H274        O275   0.962       .  S
O275       Zr294   2.337   1_655  S
O275       Zr296   2.344       .  S
H276        O277   0.965       .  S
O277       Zr295   2.336       .  S
O277       Zr297   2.350       .  S
O278       Zr294   2.437       .  S
O278        C301   1.292       .  A
O279       Zr295   2.436       .  S
O279        C302   1.292       .  A
O280       Zr296   2.429   1_455  S
O280        C303   1.291       .  A
O281       Zr297   2.454   1_455  S
O281        C304   1.296       .  A
O282       Zr297   2.457       .  S
O282        C305   1.295       .  A
O283       Zr296   2.439       .  S
O283        C306   1.293       .  A
O284       Zr298   2.438       .  S
O284        C307   1.293       .  A
O285       Zr298   2.425       .  S
O285        C308   1.291       .  A
O286       Zr296   2.443   1_455  S
O286        C307   1.294       .  A
O287       Zr297   2.434   1_455  S
O287        C308   1.292       .  A
O288       Zr294   2.433       .  S
O288        C303   1.292       .  A
O289       Zr295   2.437       .  S
O289        C306   1.293       .  A
O290       Zr295   2.431       .  S
O290        C305   1.291       .  A
O291       Zr294   2.443       .  S
O291        C304   1.293       .  A
O292       Zr298   2.433       .  S
O292        C301   1.291       .  A
O293       Zr298   2.444       .  S
O293        C302   1.293   1_455  A
Zr294       O300   2.334       .  S
Zr294       O312   2.332       .  S
Zr295       O299   2.328       .  S
Zr295       O310   2.333       .  S
Zr296       O300   2.337   1_655  S
Zr296       O310   2.355       .  S
Zr297       O299   2.328       .  S
Zr297       O312   2.352   1_655  S
Zr298       O299   2.328   1_455  S
Zr298       O300   2.336       .  S
Zr298       O312   2.334       .  S
Zr298       O310   2.333   1_455  S
C301       C1305   1.490       .  S
C302       C1082   1.493       .  S
C303       C1145   1.485       .  S
C304       C1122   1.485       .  S
C305       C1105   1.472       .  S
C306       C1162   1.486       .  S
C307       C1172   1.480       .  S
C308       C1132   1.483       .  S
H309        O310   0.966       .  S
H311        O312   0.965       .  S
C313        C314   1.541       .  S
C313        C319   1.528       .  S
C313        C317   1.544       .  S
C313       C1062   1.525       .  S
C314        H321   1.085       .  S
C314        C315   1.369       .  D
C315        C316   1.544       .  S
C315       C1112   1.489       .  S
C316        C320   1.534       .  S
C316        C318   1.530       .  S
C316        H322   1.111       .  S
C317        H323   1.085       .  S
C317        C318   1.362       .  D
C318       C1225   1.463       .  S
C319        H324   1.087       .  S
C319        C320   1.360       .  D
C320       C1072   1.479       .  S
C325        C326   1.548       .  S
C325        C331   1.525       .  S
C325        C329   1.537       .  S
C325       C1045   1.532       .  S
C326        H333   1.084       .  S
C326        C327   1.373       .  D
C327        C328   1.540       .  S
C327       C1212   1.491       .  S
C328        C332   1.552       .  S
C328        C330   1.547       .  S
C328        H334   1.110       .  S
C329        H335   1.086       .  S
C329        C330   1.361       .  D
C330       C1125   1.482       .  S
C331        H336   1.087       .  S
C331        C332   1.358       .  D
C332       C1052   1.491       .  S
C337        C338   1.547   1_545  S
C337        C343   1.533       .  S
C337        C341   1.544       .  S
C337       C1432   1.534       .  S
C338        H345   1.086       .  S
C338        C339   1.367       .  D
C339        C340   1.534   1_565  S
C339       C1255   1.475       .  S
C340        C344   1.532       .  S
C340        C342   1.535       .  S
C340        H346   1.111       .  S
C341        H347   1.081       .  S
C341        C342   1.363       .  D
C342       C1165   1.476       .  S
C343        H348   1.087       .  S
C343        C344   1.361       .  D
C344       C1035   1.474   1_545  S
C349        C350   1.544       .  S
C349        C355   1.518       .  S
C349        C353   1.541   1_545  S
C349       C1575   1.533       .  S
C350        H357   1.086       .  S
C350        C351   1.371       .  D
C351        C352   1.553       .  S
C351       C1152   1.497       .  S
C352        C356   1.548       .  S
C352        C354   1.542   1_545  S
C352        H358   1.110       .  S
C353        H359   1.083       .  S
C353        C354   1.369       .  D
C354       C1265   1.481       .  S
C355        H360   1.088       .  S
C355        C356   1.354       .  D
C356       C1022   1.484   1_545  S
C361        C362   1.537       .  S
C361        C367   1.524       .  S
C361        C365   1.554       .  S
C361       C1002   1.540       .  S
C362        H369   1.086       .  S
C362        C363   1.371       .  D
C363        C364   1.549       .  S
C363       C1235   1.497       .  S
C364        C368   1.547       .  S
C364        C366   1.534       .  S
C364        H370   1.110       .  S
C365        H371   1.078       .  S
C365        C366   1.370       .  D
C366       C1102   1.484       .  S
C367        H372   1.087       .  S
C367        C368   1.356       .  D
C368       C1012   1.487       .  S
C373        C374   1.541       .  S
C373        C379   1.527       .  S
C373        C377   1.542       .  S
C373        C985   1.524       .  S
C374        H381   1.085       .  S
C374        C375   1.367       .  D
C375        C376   1.535       .  S
C375       C1135   1.479       .  S
C376        C380   1.532       .  S
C376        C378   1.537       .  S
C376        H382   1.110       .  S
C377        H383   1.085       .  S
C377        C378   1.365       .  D
C378       C1202   1.471       .  S
C379        H384   1.087       .  S
C379        C380   1.359       .  D
C380        C992   1.475       .  S
C385        C386   1.536       .  S
C385        C391   1.521       .  S
C385        C389   1.540   1_545  S
C385       C1425   1.535       .  S
C386        H393   1.083       .  S
C386        C387   1.362       .  D
C387        C388   1.544       .  S
C387       C1175   1.471       .  S
C388        C392   1.555       .  S
C388        C390   1.561   1_545  S
C388        H394   1.110       .  S
C389        H395   1.085       .  S
C389        C390   1.375       .  D
C390       C1242   1.514       .  S
C391        H396   1.087       .  S
C391        C392   1.359       .  D
C392        C975   1.499       .  S
C397        C398   1.540   1_545  S
C397        C403   1.528       .  S
C397        C401   1.546       .  S
C397       C1562   1.529       .  S
C398        H405   1.086       .  S
C398        C399   1.365       .  D
C399        C400   1.540   1_565  S
C399       C1275   1.477       .  S
C400        C404   1.536       .  S
C400        C402   1.533       .  S
C400        H406   1.110       .  S
C401        H407   1.084       .  S
C401        C402   1.366       .  D
C402       C1142   1.477       .  S
C403        H408   1.087       .  S
C403        C404   1.363       .  D
C404        C962   1.483       .  S
O409       Zr445   2.434       .  S
O409        C420   1.292       .  A
O410       Zr444   2.423       .  S
O410        C421   1.290       .  A
O411       Zr417   2.416       .  S
O411        C422   1.289       .  A
O412       Zr417   2.411       .  S
O412        C423   1.288       .  A
O413       Zr447   2.451   1_554  S
O413        C423   1.295       .  A
O414       Zr446   2.433   1_554  S
O414        C422   1.292       .  A
O415       Zr417   2.450       .  S
O415        C421   1.294       .  A
O416       Zr417   2.432       .  S
O416        C420   1.291   1_554  A
Zr417       O418   2.329       .  S
Zr417       O419   2.331   1_554  S
Zr417       O427   2.341   1_554  S
Zr417       O425   2.328       .  S
O418       Zr444   2.326       .  S
O418       Zr447   2.329   1_554  S
O419       Zr445   2.341       .  S
O419       Zr446   2.335       .  S
C420       C1382   1.491       .  S
C421       C1005   1.483       .  S
C422        C892   1.476       .  S
C423        C952   1.488       .  S
H424        O425   0.966       .  S
O425       Zr444   2.336       .  S
O425       Zr446   2.354   1_554  S
H426        O427   0.966       .  S
O427       Zr445   2.331       .  S
O427       Zr447   2.342       .  S
O428       Zr444   2.413       .  S
O428        C451   1.288   1_554  A
O429       Zr445   2.444       .  S
O429        C452   1.294       .  A
O430       Zr446   2.451   1_554  S
O430        C453   1.294       .  A
O431       Zr447   2.445   1_554  S
O431        C454   1.293       .  A
O432       Zr447   2.443       .  S
O432        C455   1.293       .  A
O433       Zr446   2.444       .  S
O433        C456   1.293       .  A
O434       Zr448   2.463       .  S
O434        C457   1.297       .  A
O435       Zr448   2.441       .  S
O435        C458   1.294       .  A
O436       Zr446   2.453       .  S
O436        C457   1.295       .  A
O437       Zr447   2.434       .  S
O437        C458   1.293       .  A
O438       Zr444   2.429       .  S
O438        C453   1.291       .  A
O439       Zr445   2.426       .  S
O439        C456   1.290       .  A
O440       Zr445   2.464       .  S
O440        C455   1.298       .  A
O441       Zr444   2.448       .  S
O441        C454   1.294       .  A
O442       Zr448   2.428       .  S
O442        C451   1.290       .  A
O443       Zr448   2.415       .  S
O443        C452   1.288       .  A
Zr444       O450   2.342   1_554  S
Zr444       O462   2.325   1_554  S
Zr445       O449   2.332       .  S
Zr445       O460   2.344       .  S
Zr446       O450   2.334       .  S
Zr446       O460   2.349       .  S
Zr447       O449   2.342       .  S
Zr447       O462   2.354       .  S
Zr448       O449   2.352       .  S
Zr448       O450   2.331       .  S
Zr448       O462   2.345       .  S
Zr448       O460   2.331       .  S
C451       C1322   1.479       .  S
C452       C1065   1.487       .  S
C453        C882   1.470       .  S
C454        C922   1.479       .  S
C455        C942   1.504       .  S
C456        C902   1.463       .  S
C457        C915   1.493       .  S
C458        C932   1.489       .  S
H459        O460   0.964       .  S
H461        O462   0.965       .  S
O463       Zr499   2.417       .  S
O463        C474   1.288   1_556  A
O464       Zr498   2.448       .  S
O464        C475   1.295       .  A
O465       Zr471   2.449       .  S
O465        C476   1.294       .  A
O466       Zr471   2.445       .  S
O466        C477   1.293       .  A
O467       Zr501   2.456       .  S
O467        C477   1.295       .  A
O468       Zr500   2.454       .  S
O468        C476   1.295       .  A
O469       Zr471   2.416       .  S
O469        C475   1.289       .  A
O470       Zr471   2.443       .  S
O470        C474   1.293       .  A
Zr471       O472   2.341       .  S
Zr471       O473   2.331       .  S
Zr471       O481   2.340       .  S
Zr471       O479   2.356       .  S
O472       Zr498   2.340       .  S
O472       Zr501   2.340       .  S
O473       Zr499   2.334   1_554  S
O473       Zr500   2.340       .  S
C474       C1405   1.486       .  S
C475        C982   1.485       .  S
C476        C822   1.484       .  S
C477        C862   1.484       .  S
H478        O479   0.962       .  S
O479       Zr498   2.358       .  S
O479       Zr500   2.333       .  S
H480        O481   0.964       .  S
O481       Zr499   2.338   1_554  S
O481       Zr501   2.328       .  S
O482       Zr498   2.455       .  S
O482        C505   1.296       .  A
O483       Zr499   2.428       .  S
O483        C506   1.290       .  A
O484       Zr500   2.450       .  S
O484        C507   1.295       .  A
O485       Zr501   2.428       .  S
O485        C508   1.291       .  A
O486       Zr501   2.432   1_556  S
O486        C509   1.291       .  A
O487       Zr500   2.453   1_556  S
O487        C510   1.294       .  A
O488       Zr502   2.432       .  S
O488        C511   1.291       .  A
O489       Zr502   2.436       .  S
O489        C512   1.292       .  A
O490       Zr500   2.432   1_556  S
O490        C511   1.290       .  A
O491       Zr501   2.446   1_556  S
O491        C512   1.294       .  A
O492       Zr498   2.443       .  S
O492        C507   1.294       .  A
O493       Zr499   2.426       .  S
O493        C510   1.289       .  A
O494       Zr499   2.428       .  S
O494        C509   1.290       .  A
O495       Zr498   2.449       .  S
O495        C508   1.294       .  A
O496       Zr502   2.447       .  S
O496        C505   1.294   1_556  A
O497       Zr502   2.449       .  S
O497        C506   1.295       .  A
Zr498       O504   2.333       .  S
Zr498       O516   2.346       .  S
Zr499       O503   2.329       .  S
Zr499       O514   2.336       .  S
Zr500       O504   2.346       .  S
Zr500       O514   2.331   1_554  S
Zr501       O503   2.343   1_554  S
Zr501       O516   2.335       .  S
Zr502       O503   2.334       .  S
Zr502       O504   2.334   1_556  S
Zr502       O516   2.347   1_556  S
Zr502       O514   2.342       .  S
C505       C1345   1.501   1_554  S
C506       C1042   1.489       .  S
C507        C815   1.497       .  S
C508        C872   1.490       .  S
C509        C852   1.488       .  S
C510        C835   1.468       .  S
C511        C802   1.459       .  S
C512        C845   1.490       .  S
H513        O514   0.965       .  S
H515        O516   0.964       .  S
C517        C518   1.545       .  S
C517        C523   1.524       .  S
C517        C521   1.533   1_455  S
C517       C1195   1.526       .  S
C518        H525   1.084       .  S
C518        C519   1.373       .  D
C519        C520   1.543       .  S
C519        C832   1.484       .  S
C520        C524   1.552       .  S
C520        C522   1.551   1_455  S
C520        H526   1.110       .  S
C521        H527   1.086       .  S
C521        C522   1.362       .  D
C522        C945   1.493       .  S
C523        H528   1.087       .  S
C523        C524   1.355       .  D
C524        C795   1.491       .  S
C529        C530   1.540       .  S
C529        C535   1.531       .  S
C529        C533   1.544   1_655  S
C529       C1095   1.527       .  S
C530        H537   1.085       .  S
C530        C531   1.369       .  D
C531        C532   1.545       .  S
C531        C935   1.490       .  S
C532        C536   1.532       .  S
C532        C534   1.531   1_655  S
C532        H538   1.110       .  S
C533        H539   1.082       .  S
C533        C534   1.363       .  D
C534        C805   1.468       .  S
C535        H540   1.087   1_655  S
C535        C536   1.360       .  D
C536        C782   1.479   1_655  S
C541        C542   1.541       .  S
C541        C547   1.530       .  S
C541        C545   1.545       .  S
C541       C1632   1.533       .  S
C542        H549   1.085       .  S
C542        C543   1.369       .  D
C543        C544   1.539       .  S
C543        C855   1.481       .  S
C544        C548   1.537       .  S
C544        C546   1.534       .  S
C544        H550   1.111       .  S
C545        H551   1.085       .  S
C545        C546   1.363       .  D
C546        C905   1.471       .  S
C547        H552   1.087       .  S
C547        C548   1.363       .  D
C548        C772   1.484       .  S
C553        C554   1.537       .  S
C553        C559   1.528       .  S
C553        C557   1.537       .  S
C553       C1485   1.527       .  S
C554        H561   1.079       .  S
C554        C555   1.366       .  D
C555        C556   1.543       .  S
C555        C895   1.481       .  S
C556        C560   1.544       .  S
C556        C558   1.551       .  S
C556        H562   1.109       .  S
C557        H563   1.086       .  S
C557        C558   1.366       .  D
C558        C865   1.486       .  S
C559        H564   1.088       .  S
C559        C560   1.356       .  D
C560        C762   1.488       .  S
C565        C566   1.537   1_655  S
C565        C571   1.530       .  S
C565        C569   1.548       .  S
C565       C1085   1.539       .  S
C566        H573   1.085       .  S
C566        C567   1.369       .  D
C567        C568   1.549   1_455  S
C567        C812   1.498       .  S
C568        C572   1.546       .  S
C568        C570   1.537       .  S
C568        H574   1.109       .  S
C569        H575   1.083       .  S
C569        C570   1.370       .  D
C570        C925   1.481       .  S
C571        H576   1.087       .  S
C571        C572   1.360       .  D
C572        C752   1.492       .  S
C577        C578   1.542       .  S
C577        C583   1.530       .  S
C577        C581   1.542   1_655  S
C577       C1185   1.533       .  S
C578        H585   1.085       .  S
C578        C579   1.369       .  D
C579        C580   1.539       .  S
C579        C955   1.481       .  S
C580        C584   1.539       .  S
C580        C582   1.544   1_655  S
C580        H586   1.110       .  S
C581        H587   1.085       .  S
C581        C582   1.363       .  D
C582        C825   1.483       .  S
C583        H588   1.087       .  S
C583        C584   1.364       .  D
C584        C742   1.484       .  S
C589        C590   1.541       .  S
C589        C595   1.522       .  S
C589        C593   1.540       .  S
C589       C1622   1.537       .  S
C590        H597   1.085       .  S
C590        C591   1.368       .  D
C591        C592   1.551       .  S
C591        C912   1.489       .  S
C592        C596   1.552       .  S
C592        C594   1.547       .  S
C592        H598   1.110       .  S
C593        H599   1.085       .  S
C593        C594   1.372       .  D
C594        C842   1.492       .  S
C595        H600   1.087       .  S
C595        C596   1.357       .  D
C596        C735   1.493       .  S
C601        C602   1.547       .  S
C601        C607   1.526       .  S
C601        C605   1.539       .  S
C601       C1475   1.528       .  S
C602        H609   1.085       .  S
C602        C603   1.372       .  D
C603        C604   1.538       .  S
C603        C875   1.490       .  S
C604        C608   1.533       .  S
C604        C606   1.537       .  S
C604        H610   1.108       .  S
C605        H611   1.084       .  S
C605        C606   1.362       .  D
C606        C885   1.470       .  S
C607        H612   1.087       .  S
C607        C608   1.360       .  D
C608        C725   1.480       .  S
O613       Zr649   2.495       .  S
O613        C624   1.302       .  A
O614       Zr648   2.448       .  S
O614        C625   1.292       .  A
O615       Zr621   2.454       .  S
O615        C626   1.294       .  A
O616       Zr621   2.494       .  S
O616        C627   1.302       .  A
O617       Zr651   2.389       .  S
O617        C627   1.283       .  A
O618       Zr650   2.408       .  S
O618        C626   1.286       .  A
O619       Zr621   2.411       .  S
O619        C625   1.288       .  A
O620       Zr621   2.392       .  S
O620        C624   1.284       .  A
Zr621       O622   2.331       .  S
Zr621       O623   2.338       .  S
Zr621       O631   2.329       .  S
Zr621       O629   2.352       .  S
O622       Zr648   2.346       .  S
O622       Zr651   2.329       .  S
O623       Zr649   2.327       .  S
O623       Zr650   2.322       .  S
C624       C1555   1.491       .  S
C625        C722   1.457       .  S
C626       C1315   1.460       .  S
C627       C1015   1.482       .  S
H628        O629   0.963       .  S
O629       Zr648   2.351       .  S
O629       Zr650   2.350       .  S
H630        O631   0.961       .  S
O631       Zr649   2.335       .  S
O631       Zr651   2.349       .  S
O632       Zr648   2.496       .  S
O632        C655   1.301       .  A
O633       Zr649   2.475       .  S
O633        C656   1.298       .  A
O634       Zr650   2.469       .  S
O634        C657   1.297       .  A
O635       Zr651   2.516       .  S
O635        C658   1.305       .  A
O636       Zr651   2.472       .  S
O636        C659   1.298       .  A
O637       Zr650   2.497       .  S
O637        C660   1.302       .  A
O638       Zr652   2.502       .  S
O638        C661   1.304       .  A
O639       Zr652   2.461       .  S
O639        C662   1.295       .  A
O640       Zr650   2.382       .  S
O640        C661   1.282       .  A
O641       Zr651   2.410       .  S
O641        C662   1.288       .  A
O642       Zr648   2.400       .  S
O642        C657   1.285       .  A
O643       Zr649   2.388       .  S
O643        C660   1.283       .  A
O644       Zr649   2.417       .  S
O644        C659   1.289       .  A
O645       Zr648   2.378       .  S
O645        C658   1.282       .  A
O646       Zr652   2.378       .  S
O646        C655   1.282       .  A
O647       Zr652   2.412       .  S
O647        C656   1.287       .  A
Zr648       O654   2.326       .  S
Zr648       O666   2.325       .  S
Zr649       O653   2.349       .  S
Zr649       O664   2.345       .  S
Zr650       O654   2.339       .  S
Zr650       O664   2.336       .  S
Zr651       O653   2.359       .  S
Zr651       O666   2.328       .  S
Zr652       O653   2.349       .  S
Zr652       O654   2.326       .  S
Zr652       O666   2.348       .  S
Zr652       O664   2.330       .  S
C655       C1295   1.474       .  S
C656        C775   1.470       .  S
C657        C995   1.464       .  S
C658        C765   1.490       .  S
C659       C1075   1.468       .  S
C660        C732   1.477       .  S
C661       C1055   1.489       .  S
C662       C1375   1.461       .  S
H663        O664   0.969       .  S
H665        O666   0.966       .  S
O667       Zr703   2.497       .  S
O667        C678   1.302       .  A
O668       Zr702   2.455   1_455  S
O668        C679   1.294       .  A
O669       Zr675   2.497       .  S
O669        C680   1.303       .  A
O670       Zr675   2.467   1_545  S
O670        C681   1.296       .  A
O671       Zr705   2.412       .  S
O671        C681   1.287   1_554  A
O672       Zr704   2.395       .  S
O672        C680   1.284   1_655  A
O673       Zr675   2.424   1_545  S
O673        C679   1.290       .  A
O674       Zr675   2.380       .  S
O674        C678   1.282   1_556  A
Zr675       O676   2.346   1_565  S
Zr675       O677   2.329       .  S
Zr675       O685   2.348   1_566  S
Zr675       O683   2.328   1_455  S
O676       Zr702   2.346   1_455  S
O676       Zr705   2.350   1_556  S
O677       Zr703   2.328   1_556  S
O677       Zr704   2.337   1_455  S
C678       C1412   1.481       .  S
C679        C965   1.466       .  S
C680        C792   1.494       .  S
C681       C1352   1.466       .  S
H682        O683   0.967       .  S
O683       Zr702   2.348   1_565  S
O683       Zr704   2.339       .  S
H684        O685   0.964       .  S
O685       Zr703   2.330   1_545  S
O685       Zr705   2.329       .  S
O686       Zr702   2.492       .  S
O686        C709   1.301       .  A
O687       Zr703   2.454   1_655  S
O687        C710   1.294       .  A
O688       Zr704   2.496       .  S
O688        C711   1.301       .  A
O689       Zr705   2.472   1_556  S
O689        C712   1.297       .  A
O690       Zr705   2.493       .  S
O690        C713   1.301       .  A
O691       Zr704   2.471   1_554  S
O691        C714   1.297       .  A
O692       Zr706   2.475   1_565  S
O692        C715   1.298       .  A
O693       Zr706   2.516       .  S
O693        C716   1.306       .  A
O694       Zr704   2.413       .  S
O694        C715   1.287   1_556  A
O695       Zr705   2.385       .  S
O695        C716   1.283   1_455  A
O696       Zr702   2.380       .  S
O696        C711   1.282   1_545  A
O697       Zr703   2.412   1_655  S
O697        C714   1.287       .  A
O698       Zr703   2.396   1_545  S
O698        C713   1.285       .  A
O699       Zr702   2.414       .  S
O699        C712   1.288   1_655  A
O700       Zr706   2.381       .  S
O700        C709   1.283   1_554  A
O701       Zr706   2.423       .  S
O701        C710   1.290   1_545  A
Zr702       O708   2.330       .  S
Zr702       O720   2.328   1_556  S
Zr703       O707   2.346   1_465  S
Zr703       O718   2.354   1_455  S
Zr704       O708   2.332   1_565  S
Zr704       O718   2.358   1_556  S
Zr705       O707   2.335   1_455  S
Zr705       O720   2.345   1_455  S
Zr706       O707   2.332       .  S
Zr706       O708   2.346   1_554  S
Zr706       O720   2.337       .  S
Zr706       O718   2.356   1_545  S
C709       C1335   1.475       .  S
C710       C1032   1.465       .  S
C711       C1025   1.477       .  S
C712        C785   1.470       .  S
C713        C972   1.481       .  S
C714        C745   1.470       .  S
C715       C1395   1.471       .  S
C716        C755   1.493       .  S
H717        O718   0.972       .  S
H719        O720   0.965       .  S
C721        C722   1.403       .  A
C721        C726   1.399       .  A
C721        F728   1.358       .  S
C722        C723   1.399       .  A
C723        C724   1.393       .  A
C723        F730   1.358       .  S
C724        C725   1.409       .  A
C724        F729   1.358       .  S
C725        C726   1.406       .  A
C726        F727   1.357       .  S
C731        C732   1.405       .  A
C731        C736   1.394       .  A
C731        F738   1.359       .  S
C732        C733   1.408       .  A
C733        C734   1.410       .  A
C733        F740   1.357       .  S
C734        C735   1.409       .  A
C734        F739   1.357       .  S
C735        C736   1.410       .  A
C736        F737   1.359       .  S
C741        C742   1.410       .  A
C741        C746   1.400       .  A
C741        F748   1.358       .  S
C742        C743   1.402   1_655  A
C743        C744   1.402   1_455  A
C743        F750   1.357       .  S
C744        C745   1.408       .  A
C744        F749   1.358   1_655  S
C745        C746   1.402       .  A
C746        F747   1.358       .  S
C751        C752   1.415       .  A
C751        C756   1.408       .  A
C751        F758   1.357       .  S
C752        C753   1.399       .  A
C753        C754   1.395       .  A
C753        F760   1.358   1_655  S
C754        C755   1.419       .  A
C754        F759   1.358   1_655  S
C755        C756   1.403       .  A
C756        F757   1.357       .  S
C761        C762   1.402       .  A
C761        C766   1.393       .  A
C761        F768   1.359       .  S
C762        C763   1.410       .  A
C763        C764   1.414       .  A
C763        F770   1.357       .  S
C764        C765   1.409       .  A
C764        F769   1.357       .  S
C765        C766   1.411       .  A
C766        F767   1.357       .  S
C771        C772   1.406       .  A
C771        C776   1.405       .  A
C771        F778   1.358       .  S
C772        C773   1.407       .  A
C773        C774   1.397       .  A
C773        F780   1.358       .  S
C774        C775   1.401       .  A
C774        F779   1.358       .  S
C775        C776   1.408       .  A
C776        F777   1.358       .  S
C781        C782   1.408       .  A
C781        C786   1.401       .  A
C781        F788   1.358       .  S
C782        C783   1.401   1_455  A
C783        C784   1.399       .  A
C783        F790   1.358       .  S
C784        C785   1.407   1_655  A
C784        F789   1.358       .  S
C785        C786   1.403       .  A
C786        F787   1.358       .  S
C791        C792   1.404       .  A
C791        C796   1.407       .  A
C791        F798   1.358       .  S
C792        C793   1.419   1_455  A
C793        C794   1.397       .  A
C793        F800   1.357       .  S
C794        C795   1.397   1_655  A
C794        F799   1.358       .  S
C795        C796   1.417       .  A
C796        F797   1.358       .  S
C801        C802   1.402       .  A
C801        C806   1.397       .  A
C801        F808   1.357       .  S
C802        C803   1.402       .  A
C803        C804   1.394       .  A
C803        F810   1.358       .  S
C804        C805   1.402       .  A
C804        F809   1.357       .  S
C805        C806   1.405       .  A
C806        F807   1.358       .  S
C811        C812   1.409       .  A
C811        C816   1.399       .  A
C811        F818   1.358       .  S
C812        C813   1.409       .  A
C813        C814   1.405       .  A
C813        F820   1.356       .  S
C814        C815   1.413       .  A
C814        F819   1.358       .  S
C815        C816   1.411       .  A
C816        F817   1.358       .  S
C821        C822   1.406       .  A
C821        C826   1.401       .  A
C821        F828   1.358       .  S
C822        C823   1.410       .  A
C823        C824   1.405       .  A
C823        F830   1.358       .  S
C824        C825   1.404       .  A
C824        F829   1.357       .  S
C825        C826   1.405       .  A
C826        F827   1.358       .  S
C831        C832   1.408       .  A
C831        C836   1.398       .  A
C831        F838   1.357       .  S
C832        C833   1.407       .  A
C833        C834   1.402       .  A
C833        F840   1.358       .  S
C834        C835   1.404       .  A
C834        F839   1.358       .  S
C835        C836   1.401       .  A
C836        F837   1.357       .  S
C841        C842   1.408       .  A
C841        C846   1.401       .  A
C841        F848   1.356       .  S
C842        C843   1.408       .  A
C843        C844   1.398       .  A
C843        F850   1.358       .  S
C844        C845   1.410       .  A
C844        F849   1.358       .  S
C845        C846   1.411       .  A
C846        F847   1.358       .  S
C851        C852   1.412       .  A
C851        C856   1.399       .  A
C851        F858   1.358       .  S
C852        C853   1.414       .  A
C853        C854   1.395       .  A
C853        F860   1.358       .  S
C854        C855   1.401       .  A
C854        F859   1.358       .  S
C855        C856   1.406       .  A
C856        F857   1.357       .  S
C861        C862   1.406       .  A
C861        C866   1.403       .  A
C861        F868   1.358       .  S
C862        C863   1.409       .  A
C863        C864   1.404       .  A
C863        F870   1.358       .  S
C864        C865   1.402       .  A
C864        F869   1.357       .  S
C865        C866   1.409       .  A
C866        F867   1.358       .  S
C871        C872   1.412       .  A
C871        C876   1.396       .  A
C871        F878   1.359       .  S
C872        C873   1.410       .  A
C873        C874   1.400       .  A
C873        F880   1.357       .  S
C874        C875   1.408       .  A
C874        F879   1.357       .  S
C875        C876   1.408       .  A
C876        F877   1.357       .  S
C881        C882   1.408       .  A
C881        C886   1.397       .  A
C881        F888   1.358       .  S
C882        C883   1.404       .  A
C883        C884   1.398       .  A
C883        F890   1.358       .  S
C884        C885   1.405       .  A
C884        F889   1.358       .  S
C885        C886   1.399       .  A
C886        F887   1.358       .  S
C891        C892   1.408       .  A
C891        C896   1.392       .  A
C891        F898   1.359       .  S
C892        C893   1.408       .  A
C893        C894   1.394       .  A
C893        F900   1.358       .  S
C894        C895   1.405       .  A
C894        F899   1.356       .  S
C895        C896   1.409       .  A
C896        F897   1.359       .  S
C901        C902   1.404       .  A
C901        C906   1.401       .  A
C901        F908   1.358       .  S
C902        C903   1.402       .  A
C903        C904   1.392       .  A
C903        F910   1.358       .  S
C904        C905   1.401       .  A
C904        F909   1.357       .  S
C905        C906   1.407       .  A
C906        F907   1.358       .  S
C911        C912   1.403       .  A
C911        C916   1.406       .  A
C911        F918   1.357       .  S
C912        C913   1.408       .  A
C913        C914   1.405       .  A
C913        F920   1.358       .  S
C914        C915   1.409       .  A
C914        F919   1.358       .  S
C915        C916   1.411       .  A
C916        F917   1.358       .  S
C921        C922   1.407       .  A
C921        C926   1.403       .  A
C921        F928   1.358       .  S
C922        C923   1.406       .  A
C923        C924   1.400       .  A
C923        F930   1.358       .  S
C924        C925   1.403       .  A
C924        F929   1.358       .  S
C925        C926   1.406       .  A
C926        F927   1.358       .  S
C931        C932   1.412       .  A
C931        C936   1.393       .  A
C931        F938   1.358       .  S
C932        C933   1.411       .  A
C933        C934   1.400       .  A
C933        F940   1.358       .  S
C934        C935   1.409       .  A
C934        F939   1.358       .  S
C935        C936   1.407       .  A
C936        F937   1.356       .  S
C941        C942   1.419       .  A
C941        C946   1.405       .  A
C941        F948   1.358       .  S
C942        C943   1.412       .  A
C943        C944   1.401       .  A
C943        F950   1.358       .  S
C944        C945   1.408       .  A
C944        F949   1.358       .  S
C945        C946   1.404       .  A
C946        F947   1.357       .  S
C951        C952   1.411       .  A
C951        C956   1.397       .  A
C951        F958   1.357       .  S
C952        C953   1.415       .  A
C953        C954   1.395       .  A
C953        F960   1.359       .  S
C954        C955   1.405       .  A
C954        F959   1.359       .  S
C955        C956   1.404       .  A
C956        F957   1.356       .  S
C961        C962   1.409       .  A
C961        C966   1.397       .  A
C961        F968   1.359       .  S
C962        C963   1.405       .  A
C963        C964   1.401       .  A
C963        F970   1.356   1_545  S
C964        C965   1.405       .  A
C964        F969   1.358   1_545  S
C965        C966   1.401       .  A
C966        F967   1.358       .  S
C971        C972   1.403       .  A
C971        C976   1.393       .  A
C971        F978   1.359   1_545  S
C972        C973   1.409       .  A
C973        C974   1.414       .  A
C973        F980   1.358       .  S
C974        C975   1.412       .  A
C974        F979   1.356       .  S
C975        C976   1.410       .  A
C976        F977   1.358   1_545  S
C981        C982   1.406       .  A
C981        C986   1.394       .  A
C981        F988   1.358       .  S
C982        C983   1.412       .  A
C983        C984   1.394       .  A
C983        F990   1.358       .  S
C984        C985   1.411       .  A
C984        F989   1.357       .  S
C985        C986   1.415       .  A
C986        F987   1.357       .  S
C991        C992   1.408       .  A
C991        C996   1.397       .  A
C991        F998   1.358       .  S
C992        C993   1.402       .  A
C993        C994   1.398       .  A
C993       F1000   1.358       .  S
C994        C995   1.407       .  A
C994        F999   1.358       .  S
C995        C996   1.401       .  A
C996        F997   1.358       .  S
C1001      C1002   1.421       .  A
C1001      C1006   1.400       .  A
C1001      F1008   1.359       .  S
C1002      C1003   1.415       .  A
C1003      C1004   1.398       .  A
C1003      F1010   1.351       .  S
C1004      C1005   1.407       .  A
C1004      F1009   1.359       .  S
C1005      C1006   1.401       .  A
C1006      F1007   1.358       .  S
C1011      C1012   1.398       .  A
C1011      C1016   1.394       .  A
C1011      F1018   1.358       .  S
C1012      C1013   1.417       .  A
C1013      C1014   1.402       .  A
C1013      F1020   1.358       .  S
C1014      C1015   1.400       .  A
C1014      F1019   1.357       .  S
C1015      C1016   1.416       .  A
C1016      F1017   1.356       .  S
C1021      C1022   1.409       .  A
C1021      C1026   1.412       .  A
C1021      F1028   1.357       .  S
C1022      C1023   1.403   1_565  A
C1023      C1024   1.387       .  A
C1023      F1030   1.359       .  S
C1024      C1025   1.406   1_545  A
C1024      F1029   1.356       .  S
C1025      C1026   1.409       .  A
C1026      F1027   1.357       .  S
C1031      C1032   1.402       .  A
C1031      C1036   1.398       .  A
C1031      F1038   1.358       .  S
C1032      C1033   1.405   1_565  A
C1033      C1034   1.399       .  A
C1033      F1040   1.357       .  S
C1034      C1035   1.403   1_545  A
C1034      F1039   1.358       .  S
C1035      C1036   1.406       .  A
C1036      F1037   1.358       .  S
C1041      C1042   1.411       .  A
C1041      C1046   1.398       .  A
C1041      F1048   1.358       .  S
C1042      C1043   1.405       .  A
C1043      C1044   1.396       .  A
C1043      F1050   1.358       .  S
C1044      C1045   1.418       .  A
C1044      F1049   1.357       .  S
C1045      C1046   1.413       .  A
C1046      F1047   1.356       .  S
C1051      C1052   1.417       .  A
C1051      C1056   1.407       .  A
C1051      F1058   1.358       .  S
C1052      C1053   1.397       .  A
C1053      C1054   1.395       .  A
C1053      F1060   1.357       .  S
C1054      C1055   1.417       .  A
C1054      F1059   1.357       .  S
C1055      C1056   1.402       .  A
C1056      F1057   1.358       .  S
C1061      C1062   1.413       .  A
C1061      C1066   1.394       .  A
C1061      F1068   1.357       .  S
C1062      C1063   1.412       .  A
C1063      C1064   1.396       .  A
C1063      F1070   1.358       .  S
C1064      C1065   1.411       .  A
C1064      F1069   1.358       .  S
C1065      C1066   1.407       .  A
C1066      F1067   1.358       .  S
C1071      C1072   1.402       .  A
C1071      C1076   1.401       .  A
C1071      F1078   1.358       .  S
C1072      C1073   1.408       .  A
C1073      C1074   1.397       .  A
C1073      F1080   1.358       .  S
C1074      C1075   1.400       .  A
C1074      F1079   1.358       .  S
C1075      C1076   1.409       .  A
C1076      F1077   1.358       .  S
C1081      C1082   1.405   1_455  A
C1081      C1086   1.398       .  A
C1081      F1088   1.358       .  S
C1082      C1083   1.410       .  A
C1083      C1084   1.401       .  A
C1083      F1090   1.358       .  S
C1084      C1085   1.415       .  A
C1084      F1089   1.355       .  S
C1085      C1086   1.419   1_655  A
C1086      F1087   1.357       .  S
C1091      C1092   1.407   1_455  A
C1091      C1096   1.394       .  A
C1091      F1098   1.358       .  S
C1092      C1093   1.408       .  A
C1093      C1094   1.395       .  A
C1093      F1100   1.358       .  S
C1094      C1095   1.413       .  A
C1094      F1099   1.358       .  S
C1095      C1096   1.415   1_655  A
C1096      F1097   1.355       .  S
C1101      C1102   1.408       .  A
C1101      C1106   1.401       .  A
C1101      F1108   1.358       .  S
C1102      C1103   1.406       .  A
C1103      C1104   1.401       .  A
C1103      F1110   1.358       .  S
C1104      C1105   1.405       .  A
C1104      F1109   1.358       .  S
C1105      C1106   1.403       .  A
C1106      F1107   1.358       .  S
C1111      C1112   1.406       .  A
C1111      C1116   1.395       .  A
C1111      F1118   1.356       .  S
C1112      C1113   1.407       .  A
C1113      C1114   1.401       .  A
C1113      F1120   1.358       .  S
C1114      C1115   1.414       .  A
C1114      F1119   1.358       .  S
C1115      C1116   1.412       .  A
C1116      F1117   1.358       .  S
C1121      C1122   1.412       .  A
C1121      C1126   1.404       .  A
C1121      F1128   1.358       .  S
C1122      C1123   1.406       .  A
C1123      C1124   1.399       .  A
C1123      F1130   1.358       .  S
C1124      C1125   1.405       .  A
C1124      F1129   1.357       .  S
C1125      C1126   1.403       .  A
C1126      F1127   1.358       .  S
C1131      C1132   1.411       .  A
C1131      C1136   1.396       .  A
C1131      F1138   1.358       .  S
C1132      C1133   1.411       .  A
C1133      C1134   1.392       .  A
C1133      F1140   1.358       .  S
C1134      C1135   1.405       .  A
C1134      F1139   1.358       .  S
C1135      C1136   1.405       .  A
C1136      F1137   1.356       .  S
C1141      C1142   1.402       .  A
C1141      C1146   1.392       .  A
C1141      F1148   1.357       .  S
C1142      C1143   1.405       .  A
C1143      C1144   1.397       .  A
C1143      F1150   1.358       .  S
C1144      C1145   1.412       .  A
C1144      F1149   1.358       .  S
C1145      C1146   1.412       .  A
C1146      F1147   1.358       .  S
C1151      C1152   1.409       .  A
C1151      C1156   1.405       .  A
C1151      F1158   1.357       .  S
C1152      C1153   1.406       .  A
C1153      C1154   1.411       .  A
C1153      F1160   1.358       .  S
C1154      C1155   1.413       .  A
C1154      F1159   1.358       .  S
C1155      C1156   1.406       .  A
C1156      F1157   1.357       .  S
C1161      C1162   1.411       .  A
C1161      C1166   1.395       .  A
C1161      F1168   1.358       .  S
C1162      C1163   1.413       .  A
C1163      C1164   1.399       .  A
C1163      F1170   1.358       .  S
C1164      C1165   1.403       .  A
C1164      F1169   1.358       .  S
C1165      C1166   1.401       .  A
C1166      F1167   1.355       .  S
C1171      C1172   1.409       .  A
C1171      C1176   1.397       .  A
C1171      F1178   1.358       .  S
C1172      C1173   1.410       .  A
C1173      C1174   1.399       .  A
C1173      F1180   1.358       .  S
C1174      C1175   1.401       .  A
C1174      F1179   1.357       .  S
C1175      C1176   1.402       .  A
C1176      F1177   1.358       .  S
C1181      C1182   1.409       .  A
C1181      C1186   1.401       .  A
C1181      F1188   1.358       .  S
C1182      C1183   1.411   1_655  A
C1183      C1184   1.395       .  A
C1183      F1190   1.358       .  S
C1184      C1185   1.412   1_455  A
C1184      F1189   1.356       .  S
C1185      C1186   1.415       .  A
C1186      F1187   1.358       .  S
C1191      C1192   1.404       .  A
C1191      C1196   1.394       .  A
C1191      F1198   1.358       .  S
C1192      C1193   1.413   1_655  A
C1193      C1194   1.396       .  A
C1193      F1200   1.358       .  S
C1194      C1195   1.411       .  A
C1194      F1199   1.356       .  S
C1195      C1196   1.419   1_455  A
C1196      F1197   1.357       .  S
C1201      C1202   1.402       .  A
C1201      C1206   1.393       .  A
C1201      F1208   1.357       .  S
C1202      C1203   1.402       .  A
C1203      C1204   1.402       .  A
C1203      F1210   1.358       .  S
C1204      C1205   1.410       .  A
C1204      F1209   1.358       .  S
C1205      C1206   1.403       .  A
C1206      F1207   1.358       .  S
C1211      C1212   1.404       .  A
C1211      C1216   1.400       .  A
C1211      F1218   1.358       .  S
C1212      C1213   1.407       .  A
C1213      C1214   1.401       .  A
C1213      F1220   1.355       .  S
C1214      C1215   1.413       .  A
C1214      F1219   1.358       .  S
C1215      C1216   1.414       .  A
C1216      F1217   1.357       .  S
C1221      C1222   1.405       .  A
C1221      C1226   1.398       .  A
C1221      F1228   1.358       .  S
C1222      C1223   1.403       .  A
C1223      C1224   1.391       .  A
C1223      F1230   1.358       .  S
C1224      C1225   1.400       .  A
C1224      F1229   1.357       .  S
C1225      C1226   1.403       .  A
C1226      F1227   1.358       .  S
C1231      C1232   1.414       .  A
C1231      C1236   1.406       .  A
C1231      F1238   1.358       .  S
C1232      C1233   1.414       .  A
C1233      C1234   1.399       .  A
C1233      F1240   1.358       .  S
C1234      C1235   1.406       .  A
C1234      F1239   1.358       .  S
C1235      C1236   1.409       .  A
C1236      F1237   1.357       .  S
C1241      C1242   1.413       .  A
C1241      C1246   1.413       .  A
C1241      F1248   1.356       .  S
C1242      C1243   1.411       .  A
C1243      C1244   1.403       .  A
C1243      F1250   1.358       .  S
C1244      C1245   1.414       .  A
C1244      F1249   1.358       .  S
C1245      C1246   1.415       .  A
C1246      F1247   1.358       .  S
C1251      C1252   1.406       .  A
C1251      C1256   1.401       .  A
C1251      F1258   1.358       .  S
C1252      C1253   1.404       .  A
C1253      C1254   1.397       .  A
C1253      F1260   1.358       .  S
C1254      C1255   1.403       .  A
C1254      F1259   1.357       .  S
C1255      C1256   1.404       .  A
C1256      F1257   1.358       .  S
C1261      C1262   1.413       .  A
C1261      C1266   1.398       .  A
C1261      F1268   1.358       .  S
C1262      C1263   1.413       .  A
C1263      C1264   1.398       .  A
C1263      F1270   1.358       .  S
C1264      C1265   1.405       .  A
C1264      F1269   1.358       .  S
C1265      C1266   1.402       .  A
C1266      F1267   1.356       .  S
C1271      C1272   1.404       .  A
C1271      C1276   1.401       .  A
C1271      F1278   1.358       .  S
C1272      C1273   1.407       .  A
C1273      C1274   1.399       .  A
C1273      F1280   1.358       .  S
C1274      C1275   1.400       .  A
C1274      F1279   1.357       .  S
C1275      C1276   1.407       .  A
C1276      F1277   1.358       .  S
C1281      C1282   1.415       .  A
C1281      C1286   1.393       .  A
C1281      F1288   1.353       .  S
C1282      C1283   1.415       .  A
C1283      C1284   1.394       .  A
C1283      F1290   1.359       .  S
C1284      C1285   1.404       .  A
C1284      F1289   1.358       .  S
C1285      C1286   1.406       .  A
C1286      F1287   1.358       .  S
C1291      C1292   1.406       .  A
C1291      C1296   1.409       .  A
C1291      F1298   1.358       .  S
C1292      C1293   1.404       .  A
C1293      C1294   1.388       .  A
C1293      F1300   1.359       .  S
C1294      C1295   1.406       .  A
C1294      F1299   1.359       .  S
C1295      C1296   1.409       .  A
C1296      F1297   1.355       .  S
C1301      C1302   1.414       .  A
C1301      C1306   1.397       .  A
C1301      F1308   1.357       .  S
C1302      C1303   1.415       .  A
C1303      C1304   1.398       .  A
C1303      F1310   1.356       .  S
C1304      C1305   1.410       .  A
C1304      F1309   1.358       .  S
C1305      C1306   1.408       .  A
C1306      F1307   1.358       .  S
C1311      C1312   1.403       .  A
C1311      C1316   1.398       .  A
C1311      F1318   1.358       .  S
C1312      C1313   1.409       .  A
C1313      C1314   1.396       .  A
C1313      F1320   1.358       .  S
C1314      C1315   1.399       .  A
C1314      F1319   1.358       .  S
C1315      C1316   1.406       .  A
C1316      F1317   1.358       .  S
C1321      C1322   1.410   1_554  A
C1321      C1326   1.392       .  A
C1321      F1328   1.359       .  S
C1322      C1323   1.405       .  A
C1323      C1324   1.392       .  A
C1323      F1330   1.358       .  S
C1324      C1325   1.415       .  A
C1324      F1329   1.358       .  S
C1325      C1326   1.413   1_556  A
C1326      F1327   1.354       .  S
C1331      C1332   1.405       .  A
C1331      C1336   1.408       .  A
C1331      F1338   1.358       .  S
C1332      C1333   1.404   1_556  A
C1333      C1334   1.388       .  A
C1333      F1340   1.359       .  S
C1334      C1335   1.405   1_554  A
C1334      F1339   1.359       .  S
C1335      C1336   1.409       .  A
C1336      F1337   1.354       .  S
C1341      C1342   1.415       .  A
C1341      C1346   1.403       .  A
C1341      F1348   1.357       .  S
C1342      C1343   1.416   1_556  A
C1343      C1344   1.402       .  A
C1343      F1350   1.356       .  S
C1344      C1345   1.410   1_554  A
C1344      F1349   1.358       .  S
C1345      C1346   1.412       .  A
C1346      F1347   1.358       .  S
C1351      C1352   1.399       .  A
C1351      C1356   1.398       .  A
C1351      F1358   1.358       .  S
C1352      C1353   1.408   1_556  A
C1353      C1354   1.401       .  A
C1353      F1360   1.358       .  S
C1354      C1355   1.402   1_554  A
C1354      F1359   1.358       .  S
C1355      C1356   1.409       .  A
C1356      F1357   1.358       .  S
C1361      C1362   1.409       .  A
C1361      C1366   1.404       .  A
C1361      F1368   1.358       .  S
C1362      C1363   1.410       .  A
C1363      C1364   1.400       .  A
C1363      F1370   1.358       .  S
C1364      C1365   1.415       .  A
C1364      F1369   1.354       .  S
C1365      C1366   1.417       .  A
C1366      F1367   1.358       .  S
C1371      C1372   1.404       .  A
C1371      C1376   1.400       .  A
C1371      F1378   1.358       .  S
C1372      C1373   1.409       .  A
C1373      C1374   1.396       .  A
C1373      F1380   1.358       .  S
C1374      C1375   1.399       .  A
C1374      F1379   1.358       .  S
C1375      C1376   1.406       .  A
C1376      F1377   1.358       .  S
C1381      C1382   1.409       .  A
C1381      C1386   1.394       .  A
C1381      F1388   1.358       .  S
C1382      C1383   1.411   1_556  A
C1383      C1384   1.400       .  A
C1383      F1390   1.358       .  S
C1384      C1385   1.413   1_554  A
C1384      F1389   1.357       .  S
C1385      C1386   1.414       .  A
C1386      F1387   1.357       .  S
C1391      C1392   1.408       .  A
C1391      C1396   1.400       .  A
C1391      F1398   1.358       .  S
C1392      C1393   1.402   1_554  A
C1393      C1394   1.401       .  A
C1393      F1400   1.358       .  S
C1394      C1395   1.409   1_556  A
C1394      F1399   1.358       .  S
C1395      C1396   1.402       .  A
C1396      F1397   1.358       .  S
C1401      C1402   1.416   1_554  A
C1401      C1406   1.394       .  A
C1401      F1408   1.357       .  S
C1402      C1403   1.412       .  A
C1403      C1404   1.394       .  A
C1403      F1410   1.356       .  S
C1404      C1405   1.411   1_556  A
C1404      F1409   1.358       .  S
C1405      C1406   1.406       .  A
C1406      F1407   1.358       .  S
C1411      C1412   1.400       .  A
C1411      C1416   1.405       .  A
C1411      F1418   1.358       .  S
C1412      C1413   1.415   1_554  A
C1413      C1414   1.390       .  A
C1413      F1420   1.357       .  S
C1414      C1415   1.398   1_556  A
C1414      F1419   1.357       .  S
C1415      C1416   1.419       .  A
C1416      F1417   1.358       .  S
C1421      C1422   1.407   1_565  A
C1421      C1426   1.399       .  A
C1421      F1428   1.358       .  S
C1422      C1423   1.409       .  A
C1423      C1424   1.396       .  A
C1423      F1430   1.359       .  S
C1424      C1425   1.417       .  A
C1424      F1429   1.355       .  S
C1425      C1426   1.416   1_545  A
C1426      F1427   1.357       .  S
C1431      C1432   1.413   1_565  A
C1431      C1436   1.397       .  A
C1431      F1438   1.358       .  S
C1432      C1433   1.416       .  A
C1433      C1434   1.397       .  A
C1433      F1440   1.353       .  S
C1434      C1435   1.410       .  A
C1434      F1439   1.358       .  S
C1435      C1436   1.409   1_545  A
C1436      F1437   1.358       .  S
C1441      C1442   1.410       .  A
C1441      C1446   1.400       .  A
C1441      F1448   1.357       .  S
C1442      C1443   1.409       .  A
C1443      C1444   1.390       .  A
C1443      F1450   1.358       .  S
C1444      C1445   1.407       .  A
C1444      F1449   1.358       .  S
C1445      C1446   1.408       .  A
C1446      F1447   1.356       .  S
C1451      C1452   1.407       .  A
C1451      C1456   1.397       .  A
C1451      F1458   1.356       .  S
C1452      C1453   1.410       .  A
C1453      C1454   1.405       .  A
C1453      F1460   1.358       .  S
C1454      C1455   1.415       .  A
C1454      F1459   1.358       .  S
C1455      C1456   1.411       .  A
C1456      F1457   1.357       .  S
C1461      C1462   1.405       .  A
C1461      C1466   1.395       .  A
C1461      F1468   1.358       .  S
C1462      C1463   1.406       .  A
C1463      C1464   1.399       .  A
C1463      F1470   1.358       .  S
C1464      C1465   1.402       .  A
C1464      F1469   1.358       .  S
C1465      C1466   1.402       .  A
C1466      F1467   1.358       .  S
C1471      C1472   1.409       .  A
C1471      C1476   1.396       .  A
C1471      F1478   1.358       .  S
C1472      C1473   1.410       .  A
C1473      C1474   1.396       .  A
C1473      F1480   1.358       .  S
C1474      C1475   1.414       .  A
C1474      F1479   1.355       .  S
C1475      C1476   1.412       .  A
C1476      F1477   1.358       .  S
C1481      C1482   1.401       .  A
C1481      C1486   1.393       .  A
C1481      F1488   1.358       .  S
C1482      C1483   1.408       .  A
C1483      C1484   1.392       .  A
C1483      F1490   1.360       .  S
C1484      C1485   1.417       .  A
C1484      F1489   1.353       .  S
C1485      C1486   1.415       .  A
C1486      F1487   1.358       .  S
C1491      C1492   1.402       .  A
C1491      C1496   1.403       .  A
C1491      F1498   1.358       .  S
C1492      C1493   1.403       .  A
C1493      C1494   1.393       .  A
C1493      F1500   1.358       .  S
C1494      C1495   1.404       .  A
C1494      F1499   1.358       .  S
C1495      C1496   1.409       .  A
C1496      F1497   1.358       .  S
C1501      C1502   1.402       .  A
C1501      C1506   1.393       .  A
C1501      F1508   1.358       .  S
C1502      C1503   1.406       .  A
C1503      C1504   1.402       .  A
C1503      F1510   1.358       .  S
C1504      C1505   1.405       .  A
C1504      F1509   1.358       .  S
C1505      C1506   1.402       .  A
C1506      F1507   1.357       .  S
C1511      C1512   1.406       .  A
C1511      C1516   1.392       .  A
C1511      F1518   1.358       .  S
C1512      C1513   1.409       .  A
C1513      C1514   1.400       .  A
C1513      F1520   1.356       .  S
C1514      C1515   1.410       .  A
C1514      F1519   1.358       .  S
C1515      C1516   1.409       .  A
C1516      F1517   1.358       .  S
C1521      C1522   1.408       .  A
C1521      C1526   1.408       .  A
C1521      F1528   1.358       .  S
C1522      C1523   1.406       .  A
C1523      C1524   1.402       .  A
C1523      F1530   1.356       .  S
C1524      C1525   1.415       .  A
C1524      F1529   1.357       .  S
C1525      C1526   1.417       .  A
C1526      F1527   1.358       .  S
C1531      C1532   1.414       .  A
C1531      C1536   1.394       .  A
C1531      F1538   1.357       .  S
C1532      C1533   1.414       .  A
C1533      C1534   1.394       .  A
C1533      F1540   1.356       .  S
C1534      C1535   1.408       .  A
C1534      F1539   1.358       .  S
C1535      C1536   1.408       .  A
C1536      F1537   1.358       .  S
C1541      C1542   1.402       .  A
C1541      C1546   1.403       .  A
C1541      F1548   1.357       .  S
C1542      C1543   1.405       .  A
C1543      C1544   1.400       .  A
C1543      F1550   1.357       .  S
C1544      C1545   1.411       .  A
C1544      F1549   1.358       .  S
C1545      C1546   1.411       .  A
C1546      F1547   1.357       .  S
C1551      C1552   1.397       .  A
C1551      C1556   1.393       .  A
C1551      F1558   1.358       .  S
C1552      C1553   1.415       .  A
C1553      C1554   1.406       .  A
C1553      F1560   1.358       .  S
C1554      C1555   1.404       .  A
C1554      F1559   1.357       .  S
C1555      C1556   1.418       .  A
C1556      F1557   1.356       .  S
C1561      C1562   1.414   1_565  A
C1561      C1566   1.401       .  A
C1561      F1568   1.357       .  S
C1562      C1563   1.411       .  A
C1563      C1564   1.392       .  A
C1563      F1570   1.357       .  S
C1564      C1565   1.410       .  A
C1564      F1569   1.358       .  S
C1565      C1566   1.409   1_545  A
C1566      F1567   1.358       .  S
C1571      C1572   1.409   1_565  A
C1571      C1576   1.397       .  A
C1571      F1578   1.358       .  S
C1572      C1573   1.408       .  A
C1573      C1574   1.399       .  A
C1573      F1580   1.358       .  S
C1574      C1575   1.416       .  A
C1574      F1579   1.357       .  S
C1575      C1576   1.416   1_545  A
C1576      F1577   1.355       .  S
C1581      C1582   1.414       .  A
C1581      C1586   1.403       .  A
C1581      F1588   1.358       .  S
C1582      C1583   1.414       .  A
C1583      C1584   1.398       .  A
C1583      F1590   1.358       .  S
C1584      C1585   1.405       .  A
C1584      F1589   1.356       .  S
C1585      C1586   1.407       .  A
C1586      F1587   1.358       .  S
C1591      C1592   1.410       .  A
C1591      C1596   1.396       .  A
C1591      F1598   1.355       .  S
C1592      C1593   1.407       .  A
C1593      C1594   1.391       .  A
C1593      F1600   1.358       .  S
C1594      C1595   1.409       .  A
C1594      F1599   1.359       .  S
C1595      C1596   1.406       .  A
C1596      F1597   1.358       .  S
C1601      C1602   1.405       .  A
C1601      C1606   1.400       .  A
C1601      F1608   1.358       .  S
C1602      C1603   1.407       .  A
C1603      C1604   1.405       .  A
C1603      F1610   1.358       .  S
C1604      C1605   1.406       .  A
C1604      F1609   1.358       .  S
C1605      C1606   1.404       .  A
C1606      F1607   1.357       .  S
C1611      C1612   1.401       .  A
C1611      C1616   1.402       .  A
C1611      F1618   1.357       .  S
C1612      C1613   1.405       .  A
C1613      C1614   1.399       .  A
C1613      F1620   1.358       .  S
C1614      C1615   1.409       .  A
C1614      F1619   1.359       .  S
C1615      C1616   1.410       .  A
C1616      F1617   1.358       .  S
C1621      C1622   1.416       .  A
C1621      C1626   1.397       .  A
C1621      F1628   1.357       .  S
C1622      C1623   1.417       .  A
C1623      C1624   1.402       .  A
C1623      F1630   1.356       .  S
C1624      C1625   1.411       .  A
C1624      F1629   1.358       .  S
C1625      C1626   1.410       .  A
C1626      F1627   1.358       .  S
C1631      C1632   1.413       .  A
C1631      C1636   1.396       .  A
C1631      F1638   1.358       .  S
C1632      C1633   1.414       .  A
C1633      C1634   1.402       .  A
C1633      F1640   1.356       .  S
C1634      C1635   1.409       .  A
C1634      F1639   1.357       .  S
C1635      C1636   1.412       .  A
C1636      F1637   1.358       .  S
C1641      C1642   1.404       .  A
C1641      C1646   1.398       .  A
C1641      F1648   1.357       .  S
C1642      C1643   1.406       .  A
C1643      C1644   1.405       .  A
C1643      F1650   1.357       .  S
C1644      C1645   1.406       .  A
C1644      F1649   1.358       .  S
C1645      C1646   1.404       .  A
C1646      F1647   1.358       .  S
C1651      C1652   1.411       .  A
C1651      C1656   1.405       .  A
C1651      F1658   1.358       .  S
C1652      C1653   1.408       .  A
C1653      C1654   1.398       .  A
C1653      F1660   1.358       .  S
C1654      C1655   1.404       .  A
C1654      F1659   1.358       .  S
C1655      C1656   1.403       .  A
C1656      F1657   1.358       .  S
C1661      C1662   1.414       .  A
C1661      C1666   1.402       .  A
C1661      F1668   1.358       .  S
C1662      C1663   1.413       .  A
C1663      C1664   1.396       .  A
C1663      F1670   1.358       .  S
C1664      C1665   1.404       .  A
C1664      F1669   1.356       .  S
C1665      C1666   1.408       .  A
C1666      F1667   1.358       .  S
C1671      C1672   1.412       .  A
C1671      C1676   1.392       .  A
C1671      F1678   1.358       .  S
C1672      C1673   1.410       .  A
C1673      C1674   1.398       .  A
C1673      F1680   1.358       .  S
C1674      C1675   1.405       .  A
C1674      F1679   1.356       .  S
C1675      C1676   1.403       .  A
C1676      F1677   1.358       .  S
