geometry optimzed in LAMMPS
_audit_creation_date              2020-11-30 
_audit_creation_method            'lammps2cif' 
_symmetry_space_group_name_H-M    'P1' 
_symmetry_Int_Tables_number       1 
_symmetry_cell_setting            triclinic 
loop_ 
_symmetry_equiv_pos_as_xyz 
  x,y,z 
_cell_length_a                    47.81080646 
_cell_length_b                    39.78643293920169 
_cell_length_c                    34.40763277984137 
_cell_angle_alpha                 89.6805103594581 
_cell_angle_beta                  90.00276991948986 
_cell_angle_gamma                 90.18358163516562 
loop_ 
_atom_site_label 
_atom_site_type_symbol 
_atom_site_fract_x 
_atom_site_fract_y 
_atom_site_fract_z 
_atom_site_charge 
C1          C  0.70457844  0.28160068  0.69709964    -0.10300
C2          C  0.69357583  0.25129119  0.68365217    -0.04200
C3          C  0.70468750  0.22038660  0.69503540    -0.10300
C4          C  0.72750617  0.21936125  0.72108137     0.10600
C5          C  0.73870420  0.24991235  0.73556813    -0.02100
C6          C  0.72713980  0.28121696  0.72369140     0.10400
C7          C  0.73843836  0.31110490  0.73863694    -0.12100
C8          C  0.76075137  0.31032977  0.76477529    -0.12100
C9          C  0.77255147  0.27963608  0.77677143     0.10400
C10         C  0.76142352  0.24911888  0.76209680    -0.02100
C11         C  0.73945220  0.18869244  0.73276383    -0.12200
C12         C  0.76206533  0.18794901  0.75826280    -0.12200
C13         C  0.77309271  0.21779690  0.77369498     0.10600
C14         C  0.79527081  0.21719661  0.80090612    -0.10300
C15         C  0.80581199  0.24748012  0.81524518    -0.04200
C16         C  0.79527934  0.27850027  0.80300574    -0.10300
H17         H  0.73007434  0.33532556  0.73018199     0.07900
H18         H  0.76873982  0.33400832  0.77554777     0.07900
H19         H  0.73145873  0.16498428  0.72210838     0.08100
H20         H  0.77056829  0.16371099  0.76634780     0.08100
H21         H  0.67597431  0.25176770  0.66371647     0.04500
H22         H  0.82322786  0.24693912  0.83548466     0.04500
Zr23       Zr  0.50181956  0.55387363  0.45084071     2.17500
O24         O  0.50113183  0.56768297  0.38169746    -0.50800
O25         O  0.50633837  0.61091245  0.47463332    -0.74000
O26         O  0.45785416  0.57876213  0.43086956    -0.80800
O27         O  0.57978300  0.53214458  0.44632941    -0.82500
O28         O  0.42258813  0.55087242  0.46175319    -0.78200
O29         O  0.54644486  0.56553725  0.42000181    -0.89800
O30         O  0.50497473  0.60998099  0.54055395    -0.75800
O31         O  0.47372918  0.55525763  0.50777733    -0.85200
O32         O  0.53348592  0.55036538  0.50402383    -0.84900
O33         O  0.47063532  0.50676589  0.44509583    -0.71700
O34         O  0.52611204  0.50196926  0.44225035    -0.83800
Zr35       Zr  0.49828333  0.45143988  0.54952333     2.26400
Zr36       Zr  0.44324083  0.50782351  0.50325935     2.06300
Zr37       Zr  0.55710119  0.49798410  0.49646334     2.10000
Zr38       Zr  0.50521007  0.55111461  0.56093026     1.78800
O39         O  0.58939457  0.46382246  0.45900682    -0.92600
O40         O  0.46789374  0.57786960  0.59772172    -0.40400
O41         O  0.52956932  0.49870427  0.55471258    -0.77100
O42         O  0.47387705  0.50370542  0.55831703    -0.95800
O43         O  0.46710321  0.45564406  0.49594450    -0.89100
O44         O  0.52652279  0.45058800  0.49259854    -0.91900
C45         C  0.50632915  0.62551705  0.50775340     1.01800
C46         C  0.57180005  0.55502657  0.42233281     1.14800
C47         C  0.43195287  0.57357327  0.43842978     1.05600
O48         O  0.41081536  0.53926586  0.54361249    -0.94100
O49         O  0.41944591  0.46772344  0.54527272    -0.89800
O50         O  0.45207792  0.43191197  0.57007514    -0.82900
C51         C  0.42674206  0.44203299  0.56552988     1.12200
O52         O  0.49130610  0.46694277  0.36993838    -0.96000
Zr53       Zr  0.49528451  0.45459786  0.43921699     1.88900
O54         O  0.49706497  0.39405507  0.52597475    -0.72700
O55         O  0.40654079  0.48072355  0.46545627    -0.51900
O56         O  0.45298529  0.43098415  0.41065555    -0.96600
O57         O  0.53446242  0.43124215  0.40303566    -0.53800
O58         O  0.49471548  0.39593649  0.46007328    -0.73200
C59         C  0.49594177  0.37991937  0.49255166     0.99100
O60         O  0.49510849  0.43896010  0.61882420    -0.62000
O61         O  0.59361420  0.52804241  0.53144913    -0.56800
O62         O  0.54308536  0.42933224  0.57213018    -0.93500
O63         O  0.57790164  0.45613607  0.53922229    -0.91900
O64         O  0.54781435  0.57471372  0.58875957    -0.92300
O65         O  0.51075297  0.53873124  0.62993327    -0.91100
C66         C  0.56902628  0.43421047  0.56390171     1.18000
H67         H  0.54667214  0.56880224  0.50362708     0.33900
H68         H  0.46298761  0.50264793  0.58191787     0.44800
H69         H  0.53742001  0.43023369  0.49127374     0.38300
H70         H  0.45877255  0.50966855  0.42261207     0.34800
H71         H  0.45378931  0.58418729  0.57793974     0.26600
H72         H  0.38923843  0.49299213  0.47219713     0.32500
H73         H  0.44147442  0.42370681  0.43310780     0.38400
H74         H  0.55494603  0.59090279  0.56915323     0.32900
H75         H  0.58820265  0.52604919  0.55914352     0.31800
H76         H  0.60779623  0.46714555  0.47163059     0.33400
H77         H  0.54724675  0.42205761  0.42300106     0.32400
H78         H  0.50030624  0.51749185  0.63413059     0.36400
H79         H  0.50020251  0.41494815  0.62135255     0.29100
H80         H  0.49610050  0.59177609  0.38005681     0.33400
H81         H  0.49151272  0.44485216  0.35682676     0.36200
H82         H  0.61041664  0.51372645  0.52899263     0.28800
H83         H  0.51086069  0.45134588  0.63081456     0.41700
H84         H  0.39236253  0.53615833  0.53103595     0.31800
H85         H  0.45888427  0.55954278  0.61279260     0.39400
H86         H  0.54457713  0.45104461  0.39248770     0.31200
H87         H  0.41037627  0.48710065  0.43811494     0.31300
H88         H  0.48480415  0.55548526  0.37095769     0.31600
Zr89       Zr  0.50337915  0.05174574  0.54893512     2.17500
O90         O  0.50420875  0.06254215  0.61861285    -0.50800
O91         O  0.50203014  0.11009923  0.52800697    -0.74000
O92         O  0.54989747  0.06900280  0.57032664    -0.80800
O93         O  0.42391176  0.04155445  0.54788275    -0.82500
O94         O  0.58263994  0.03767793  0.53889864    -0.78200
O95         O  0.45924638  0.07015123  0.57722314    -0.89800
O96         O  0.49917817  0.11145356  0.46222748    -0.75800
O97         O  0.53239476  0.05191034  0.49271323    -0.85200
O98         O  0.47245319  0.05347349  0.49472246    -0.84900
O99         O  0.53036813  0.00084154  0.55215053    -0.71700
O100        O  0.47456269  0.00255121  0.55495227    -0.83800
Zr101      Zr  0.49845585  0.95320280  0.44508587     2.26400
Zr102      Zr  0.55828564  0.00049322  0.49400173     2.06300
Zr103      Zr  0.44416011  0.00401943  0.49971865     2.10000
Zr104      Zr  0.50159372  0.05379212  0.43878105     1.78800
O105        O  0.41172912  0.97051263  0.53842115    -0.92600
O106        O  0.54417062  0.08033147  0.41417785    -0.40400
O107        O  0.47219936  0.00460640  0.44197494    -0.77100
O108        O  0.52773112  0.00233235  0.43887632    -0.95800
O109        O  0.52955834  0.95157282  0.49899517    -0.89100
O110        O  0.47017294  0.95299787  0.50189865    -0.91900
C111        C  0.50025959  0.12589176  0.49551975     1.01800
C112        C  0.43317575  0.06310931  0.57244155     1.14800
C113        C  0.57526647  0.06038765  0.56320952     1.05600
O114        O  0.59079669  0.03277271  0.45389931    -0.94100
O115        O  0.57790539  0.95863395  0.44959081    -0.89800
O116        O  0.54208258  0.93013921  0.42098815    -0.82900
C117        C  0.56819286  0.93574824  0.42685730     1.12200
O118        O  0.50368958  0.95752929  0.62599737    -0.96000
Zr119      Zr  0.50136895  0.95176621  0.55567531     1.88900
O120        O  0.49926282  0.89482017  0.46722192    -0.72700
O121        O  0.59455016  0.96829939  0.52701311    -0.51900
O122        O  0.54251973  0.92673709  0.58565620    -0.96600
O123        O  0.46075403  0.92732100  0.58821594    -0.53800
O124        O  0.50250350  0.89416885  0.53305452    -0.73200
C125        C  0.50132794  0.87941011  0.50003358     0.99100
O126        O  0.49750951  0.94629948  0.37466384    -0.62000
O127        O  0.40775930  0.03625690  0.46702987    -0.56800
O128        O  0.45224072  0.93558673  0.42230559    -0.93500
O129        O  0.42021922  0.96692182  0.45428801    -0.91900
O130        O  0.46299219  0.07812580  0.40215945    -0.92300
O131        O  0.50500772  0.04922023  0.36839272    -0.91100
C132        C  0.42682511  0.94432044  0.42944787     1.18000
H133        H  0.46072146  0.07317695  0.49533064     0.33900
H134        H  0.53856934  0.00108589  0.41521986     0.44800
H135        H  0.45781523  0.93375412  0.50226289     0.38300
H136        H  0.54228701  0.00116986  0.57480567     0.34800
H137        H  0.53759709  0.10007150  0.39913615     0.26600
H138        H  0.61181571  0.98190168  0.52415547     0.32500
H139        H  0.55298519  0.91659776  0.56385440     0.38400
H140        H  0.45166720  0.09015383  0.42170873     0.32900
H141        H  0.39095573  0.03331972  0.48353735     0.31800
H142        H  0.39349403  0.97285109  0.52508066     0.33400
H143        H  0.44987992  0.91599411  0.56758237     0.32400
H144        H  0.50325475  0.02486298  0.36317760     0.36400
H145        H  0.48200622  0.96081176  0.36560842     0.29100
H146        H  0.51364930  0.08455263  0.62174531     0.33400
H147        H  0.49686475  0.98056855  0.63102506     0.36200
H148        H  0.41315003  0.06009540  0.47045997     0.28800
H149        H  0.51451903  0.95792856  0.36504971     0.41700
H150        H  0.59070715  0.02154896  0.42829563     0.31800
H151        H  0.55342453  0.09014333  0.43724589     0.39400
H152        H  0.44915027  0.94682356  0.59566935     0.31200
H153        H  0.58978758  0.96962237  0.55495176     0.31300
H154        H  0.51740996  0.04584947  0.62948425     0.31600
C155        C  0.29783380  0.28073706  0.69889189    -0.10300
C156        C  0.31036164  0.25021825  0.68947850    -0.04200
C157        C  0.30064153  0.21972882  0.70466287    -0.10300
C158        C  0.27692645  0.21930825  0.72926058     0.10600
C159        C  0.26421134  0.25019242  0.73962789    -0.02100
C160        C  0.27502007  0.28108526  0.72494334     0.10400
C161        C  0.26294525  0.31142215  0.73694411    -0.12100
C162        C  0.24002207  0.31150066  0.76185322    -0.12100
C163        C  0.22856434  0.28123370  0.77595266     0.10400
C164        C  0.24079369  0.25025290  0.76498284    -0.02100
C165        C  0.26565516  0.18905846  0.74379584    -0.12200
C166        C  0.24245495  0.18910505  0.76849317    -0.12200
C167        C  0.22975540  0.21940544  0.77951702     0.10600
C168        C  0.20650321  0.21992295  0.80507564    -0.10300
C169        C  0.19479177  0.25070423  0.81549425    -0.04200
C170        C  0.20549629  0.28112636  0.80148077    -0.10300
H171        H  0.27110287  0.33538987  0.72700394     0.07900
H172        H  0.23139346  0.33554891  0.77011716     0.07900
H173        H  0.27480010  0.16510850  0.73622818     0.08100
H174        H  0.23462889  0.16520338  0.77913282     0.08100
H175        H  0.32828413  0.25021814  0.67009718     0.04500
H176        H  0.17691381  0.25099350  0.83493634     0.04500
Zr177      Zr  0.00149326  0.55122762  0.04426228     2.17500
O178        O  0.99855192  0.57138185  0.11094289    -0.50800
O179        O  0.00217735  0.60745002  0.01571359    -0.74000
O180        O  0.04697292  0.56828806  0.06999028    -0.80800
O181        O  0.92185160  0.53898685  0.04292849    -0.82500
O182        O  0.08068959  0.53492590  0.04426459    -0.78200
O183        O  0.95655884  0.57030763  0.06961288    -0.89800
O184        O  0.00187256  0.60403441  0.95013010    -0.75800
O185        O  0.03088148  0.54822984  0.98843351    -0.85200
O186        O  0.97106272  0.54859913  0.98978834    -0.84900
O187        O  0.02869041  0.50090616  0.05366122    -0.71700
O188        O  0.97358711  0.50161781  0.05452532    -0.83800
Zr189      Zr  0.99996355  0.44551293  0.95027063     2.26400
Zr190      Zr  0.05774104  0.49796061  0.99698760     2.06300
Zr191      Zr  0.94367090  0.49889521  0.99901463     2.10000
Zr192      Zr  0.00009937  0.54481323  0.93408093     1.78800
O193        O  0.91023870  0.46825962  0.03923704    -0.92600
O194        O  0.03868976  0.56814875  0.89621902    -0.40400
O195        O  0.97215247  0.49518437  0.94189910    -0.77100
O196        O  0.02796517  0.49526786  0.94085770    -0.95800
O197        O  0.03025262  0.44815962  0.00506261    -0.89100
O198        O  0.97045350  0.44853473  0.00588204    -0.91900
C199        C  0.00217848  0.62096070  0.98165675     1.01800
C200        C  0.93058268  0.56249635  0.06536270     1.14800
C201        C  0.07250837  0.55853652  0.06704133     1.05600
O202        O  0.09374639  0.52961778  0.96260060    -0.94100
O203        O  0.07919007  0.45983777  0.95036578    -0.89800
O204        O  0.04497780  0.42617094  0.92596025    -0.82900
C205        C  0.07065072  0.43567032  0.92867359     1.12200
O206        O  0.00371937  0.46341162  0.12944098    -0.96000
Zr207      Zr  0.00068493  0.45111093  0.06033561     1.88900
O208        O  0.00123826  0.38843395  0.97629303    -0.72700
O209        O  0.09055490  0.46117792  0.03040978    -0.51900
O210        O  0.03939606  0.42467035  0.09468763    -0.96600
O211        O  0.95914477  0.43053724  0.09410240    -0.53800
O212        O  0.00175217  0.39192949  0.04198194    -0.73200
C213        C  0.00183807  0.37494969  0.01035039     0.99100
O214        O  0.99872449  0.43235865  0.88099498    -0.62000
O215        O  0.90871407  0.52903795  0.96096380    -0.56800
O216        O  0.95415020  0.42564016  0.92897846    -0.93500
O217        O  0.92101478  0.45865198  0.95668891    -0.91900
O218        O  0.95746780  0.56643372  0.90450981    -0.92300
O219        O  0.99786664  0.53228571  0.86489979    -0.91100
C220        C  0.92860162  0.43456695  0.93447766     1.18000
H221        H  0.95930408  0.56826635  0.98833948     0.33900
H222        H  0.03904486  0.49323145  0.91750879     0.44800
H223        H  0.95836514  0.42908341  0.00755452     0.38300
H224        H  0.03993339  0.50267002  0.07687728     0.34800
H225        H  0.03037630  0.58688231  0.88113225     0.26600
H226        H  0.10922353  0.47063264  0.02426730     0.32500
H227        H  0.05233655  0.41731704  0.07397175     0.38400
H228        H  0.96392960  0.58292228  0.88478639     0.32900
H229        H  0.89178074  0.52910986  0.97752320     0.31800
H230        H  0.89241517  0.46934840  0.02464336     0.33400
H231        H  0.96594154  0.41191611  0.11076487     0.32400
H232        H  0.99926207  0.50751172  0.86350244     0.36400
H233        H  0.98251532  0.44491059  0.87051288     0.29100
H234        H  0.00637524  0.59446133  0.11035319     0.33400
H235        H  0.99139452  0.48310097  0.13307646     0.36200
H236        H  0.91500732  0.55275281  0.96054522     0.28800
H237        H  0.01505805  0.44410282  0.86948966     0.41700
H238        H  0.08606865  0.53290635  0.93613753     0.31800
H239        H  0.05084719  0.57932703  0.91555972     0.39400
H240        H  0.94762414  0.41940443  0.07403473     0.31200
H241        H  0.08773306  0.46573150  0.05837387     0.31300
H242        H  0.01222044  0.55789701  0.12594647     0.31600
Zr243      Zr  0.99774216  0.94543364  0.04650827     2.17500
O244        O  0.00213894  0.92863297  0.11453407    -0.50800
O245        O  0.99516901  0.88828650  0.02169254    -0.74000
O246        O  0.95322920  0.92917224  0.07540539    -0.80800
O247        O  0.07720966  0.95221795  0.03576524    -0.82500
O248        O  0.91953700  0.96434051  0.05263021    -0.78200
O249        O  0.04251946  0.92466210  0.06816029    -0.89800
O250        O  0.99725156  0.89074656  0.95575588    -0.75800
O251        O  0.96658046  0.94784144  0.99272418    -0.85200
O252        O  0.02654418  0.94632665  0.99011228    -0.84900
O253        O  0.97227359  0.99660060  0.05664907    -0.71700
O254        O  0.02740716  0.99405907  0.05253300    -0.83800
Zr255      Zr  0.99828891  0.04906530  0.94934496     2.26400
Zr256      Zr  0.94132165  0.99903470  0.00205006     2.06300
Zr257      Zr  0.05548078  0.99512366  0.99488941     2.10000
Zr258      Zr  0.99576464  0.94954060  0.93645301     1.78800
O259        O  0.09109538  0.02030024  0.03626593    -0.92600
O260        O  0.95579781  0.92473761  0.90312524    -0.40400
O261        O  0.02488739  0.99864795  0.93976843    -0.77100
O262        O  0.96909669  0.99995411  0.94388649    -0.95800
O263        O  0.97008721  0.04824283  0.00633636    -0.89100
O264        O  0.02982400  0.04605827  0.00276227    -0.91900
C265        C  0.99637982  0.87454637  0.98807157     1.01800
C266        C  0.06829512  0.92977958  0.05987983     1.14800
C267        C  0.92806208  0.94026336  0.07465381     1.05600
O268        O  0.90494574  0.96577568  0.97084443    -0.94100
O269        O  0.91856845  0.03711435  0.95676604    -0.89800
O270        O  0.95254483  0.06832125  0.92694778    -0.82900
C271        C  0.92686509  0.06003942  0.93301383     1.12200
O272        O  0.00054078  0.03332244  0.12902407    -0.96000
Zr273      Zr  0.00174404  0.04543915  0.05948531     1.88900
O274        O  0.99952359  0.10609695  0.97409381    -0.72700
O275        O  0.90866506  0.03527075  0.03615042    -0.51900
O276        O  0.96344117  0.07469720  0.09135440    -0.96600
O277        O  0.04417345  0.06508393  0.09157742    -0.53800
O278        O  0.00482110  0.10431305  0.03962201    -0.73200
C279        C  0.00243595  0.12029103  0.00722983     0.99100
O280        O  0.99510398  0.06381080  0.88063886    -0.62000
O281        O  0.08798964  0.96617715  0.95213820    -0.56800
O282        O  0.04384402  0.06849178  0.92537837    -0.93500
O283        O  0.07808920  0.03654469  0.95260437    -0.91900
O284        O  0.03660149  0.92583752  0.90452816    -0.92300
O285        O  0.99511954  0.96124412  0.86687294    -0.91100
C286        C  0.06971836  0.06094891  0.93088654     1.18000
H287        H  0.03791229  0.92637562  0.98845562     0.33900
H288        H  0.95713062  0.00200361  0.92140583     0.44800
H289        H  0.04239296  0.06515928  0.00318080     0.38300
H290        H  0.96193816  0.99547829  0.08067088     0.34800
H291        H  0.94780202  0.90845556  0.92197321     0.26600
H292        H  0.89123454  0.02191346  0.03849354     0.32500
H293        H  0.95277812  0.08540606  0.06997642     0.38400
H294        H  0.02928316  0.90657662  0.88948123     0.32900
H295        H  0.08459735  0.94194893  0.95695852     0.31800
H296        H  0.09525405  0.04249354  0.02444459     0.33400
H297        H  0.05456544  0.07785514  0.07143475     0.32400
H298        H  0.98822020  0.98461029  0.86461046     0.36400
H299        H  0.00064640  0.08778619  0.87913187     0.29100
H300        H  0.99398987  0.90575310  0.11628604     0.33400
H301        H  0.00218794  0.05540344  0.14198189     0.36200
H302        H  0.08062269  0.97020017  0.92562694     0.28800
H303        H  0.01052114  0.05150007  0.86789371     0.41700
H304        H  0.88784583  0.97963462  0.97281926     0.31800
H305        H  0.94179324  0.94297798  0.90166756     0.39400
H306        H  0.05542704  0.04455307  0.09588659     0.31200
H307        H  0.91609897  0.03661522  0.06294087     0.31300
H308        H  0.98905181  0.94317735  0.12903277     0.31600
C309        C  0.29112660  0.78689987  0.30446282    -0.10300
C310        C  0.30438354  0.75751701  0.31699970    -0.04200
C311        C  0.29423788  0.72570554  0.30731827    -0.10300
C312        C  0.26954511  0.72274054  0.28495004     0.10600
C313        C  0.25613433  0.75226915  0.27108177    -0.02100
C314        C  0.26680283  0.78451837  0.28110544     0.10400
C315        C  0.25293764  0.81331930  0.26742092    -0.12100
C316        C  0.22999063  0.81063157  0.24254696    -0.12100
C317        C  0.21961140  0.77900922  0.23135323     0.10400
C318        C  0.23233718  0.74951687  0.24651214    -0.02100
C319        C  0.25832657  0.69114576  0.27536753    -0.12200
C320        C  0.23472329  0.68846283  0.25171323    -0.12200
C321        C  0.22171825  0.71726202  0.23643579     0.10600
C322        C  0.19882261  0.71475462  0.21044487    -0.10300
C323        C  0.18687858  0.74408683  0.19534847    -0.04200
C324        C  0.19698687  0.77597983  0.20508850    -0.10300
H325        H  0.26012777  0.83821317  0.27524214     0.07900
H326        H  0.22050318  0.83358780  0.23193273     0.07900
H327        H  0.26790768  0.66820291  0.28584995     0.08100
H328        H  0.22702464  0.66357332  0.24484223     0.08100
H329        H  0.32329558  0.75945900  0.33432305     0.04500
H330        H  0.16950572  0.74204552  0.17518169     0.04500
C331        C  0.70101934  0.77590430  0.29791856    -0.10300
C332        C  0.68808136  0.74460367  0.30252009    -0.04200
C333        C  0.70033706  0.71510440  0.28868814    -0.10300
C334        C  0.72607246  0.71678636  0.26837011     0.10600
C335        C  0.73963856  0.74832791  0.26376595    -0.02100
C336        C  0.72744233  0.77785462  0.27952703     0.10400
C337        C  0.74187024  0.80851242  0.27625798    -0.12100
C338        C  0.76741391  0.81040561  0.25695863    -0.12100
C339        C  0.77886351  0.78204503  0.23879594     0.10400
C340        C  0.76538732  0.75043414  0.24321132    -0.02100
C341        C  0.73851649  0.68794277  0.25249876    -0.12200
C342        C  0.76369344  0.69006754  0.23194912    -0.12200
C343        C  0.77747765  0.72105091  0.22690080     0.10600
C344        C  0.80303396  0.72362797  0.20605764    -0.10300
C345        C  0.81520976  0.75535004  0.20050304    -0.04200
C346        C  0.80339057  0.78450422  0.21611467    -0.10300
H347        H  0.73349853  0.83134474  0.28857179     0.07900
H348        H  0.77782127  0.83459006  0.25545458     0.07900
H349        H  0.72864190  0.66353549  0.25546015     0.08100
H350        H  0.77229931  0.66721758  0.21996813     0.08100
H351        H  0.66816444  0.74311581  0.31757932     0.04500
H352        H  0.83422255  0.75742790  0.18341734     0.04500
C353        C  0.82429151  0.86369377  0.16150848    -0.11300
C354        C  0.85165546  0.86785111  0.17526547     0.11200
C355        C  0.86072458  0.84942632  0.20816628    -0.03200
C356        C  0.84321311  0.82391447  0.22300205    -0.05900
C357        C  0.81704998  0.81705719  0.20622601    -0.16700
C358        C  0.80673133  0.83818177  0.17613672     0.02300
C359        C  0.87159244  0.88655920  0.15008230     0.12200
C360        C  0.88898969  0.85624341  0.22667251     0.62800
H361        H  0.85040403  0.80787589  0.24647636     0.12200
C362        C  0.77810394  0.83271367  0.15786598     0.55000
H363        H  0.81769954  0.87884947  0.13693743     0.08000
C364        C  0.88441924  0.87044771  0.11811741    -0.05800
C365        C  0.90227903  0.88923381  0.09387819    -0.06500
C366        C  0.90768649  0.92330907  0.10059682    -0.16100
C367        C  0.89519335  0.93938299  0.13292261    -0.01700
C368        C  0.87703144  0.92063801  0.15713655    -0.09200
C369        C  0.87929785  0.83341900  0.10979226     0.65000
H370        H  0.91211239  0.87748556  0.06913600     0.10500
C371        C  0.90146261  0.97586445  0.14210922     0.63400
H372        H  0.86691707  0.93237050  0.18171306     0.07900
F373        F  0.77396219  0.85346179  0.12596768    -0.19600
F374        F  0.75737304  0.83971798  0.18451354    -0.15800
F375        F  0.77531338  0.79982890  0.14563748    -0.19300
F376        F  0.88968615  0.88892069  0.24011258    -0.22700
F377        F  0.91020963  0.85203937  0.19986529    -0.24200
F378        F  0.89406353  0.83488483  0.25776989    -0.18200
F379        F  0.88866016  0.98599011  0.17616694    -0.20700
F380        F  0.89184063  0.99610193  0.11228744    -0.21800
F381        F  0.93000223  0.98040641  0.14627736    -0.19000
F382        F  0.89459819  0.82258064  0.07831887    -0.19100
F383        F  0.85137567  0.82792356  0.10160387    -0.22900
F384        F  0.88691205  0.81407459  0.14153592    -0.24500
C385        C  0.17221053  0.83903712  0.12966743    -0.11300
C386        C  0.14809056  0.85138193  0.14770752     0.11200
C387        C  0.14186430  0.84191113  0.18651417    -0.03200
C388        C  0.15961899  0.81894288  0.20553368    -0.05900
C389        C  0.18293169  0.80525429  0.18671033    -0.16700
C390        C  0.19001377  0.81625433  0.14876595     0.02300
C391        C  0.12858305  0.87200645  0.12413078     0.12200
C392        C  0.11585434  0.85470732  0.20696595     0.62800
H393        H  0.15462271  0.81006097  0.23453421     0.12200
C394        C  0.21593670  0.80337023  0.12834842     0.55000
H395        H  0.17642909  0.84652850  0.09991966     0.08000
C396        C  0.13256879  0.90689799  0.11824954    -0.05800
C397        C  0.11259536  0.92476881  0.09644061    -0.06500
C398        C  0.08912222  0.90872998  0.08037565    -0.16100
C399        C  0.08586689  0.87338259  0.08481469    -0.01700
C400        C  0.10584597  0.85565930  0.10670966    -0.09200
C401        C  0.15788133  0.92502297  0.13471098     0.65000
H402        H  0.11492907  0.95163189  0.09224541     0.10500
C403        C  0.06200319  0.85415307  0.06574981     0.63400
H404        H  0.10372978  0.82876413  0.11091727     0.07900
F405        F  0.22056147  0.81994514  0.09342816    -0.19600
F406        F  0.21304828  0.76944537  0.12084366    -0.15800
F407        F  0.23912415  0.80835103  0.15165566    -0.19300
F408        F  0.09225074  0.84206367  0.18896843    -0.22700
F409        F  0.11503495  0.88941233  0.20558210    -0.24200
F410        F  0.11519000  0.84497559  0.24564468    -0.18200
F411        F  0.06057446  0.86245698  0.02671679    -0.20700
F412        F  0.03692810  0.86184294  0.08354474    -0.21800
F413        F  0.06563598  0.81971531  0.06857400    -0.19000
F414        F  0.15689696  0.95925604  0.12744120    -0.19100
F415        F  0.18194099  0.91254389  0.11794335    -0.22900
F416        F  0.15927531  0.92031361  0.17448034    -0.24500
C417        C  0.98503074  0.21282075  0.99066493    -0.11300
C418        C  0.00624245  0.22862637  0.01187787     0.11200
C419        C  0.02587809  0.20891453  0.03266299    -0.03200
C420        C  0.02397342  0.17357194  0.03042333    -0.05900
C421        C  0.00318361  0.15766071  0.00811723    -0.16700
C422        C  0.98320086  0.17763854  0.98808245     0.02300
C423        C  0.00669527  0.26602011  0.01206469     0.12200
C424        C  0.04859391  0.22520528  0.05709345     0.62800
H425        H  0.03891550  0.15802191  0.04582405     0.12200
C426        C  0.95939052  0.16207837  0.96514291     0.55000
H427        H  0.96996229  0.22852791  0.97571410     0.08000
C428        C  0.01802681  0.28487192  0.98087563    -0.05800
C429        C  0.01644957  0.32022331  0.98200644    -0.06500
C430        C  0.00330353  0.33731605  0.01278005    -0.16100
C431        C  0.99142952  0.31799799  0.04375616    -0.01700
C432        C  0.99346137  0.28265921  0.04267468    -0.09200
C433        C  0.03100244  0.26756240  0.94602664     0.65000
H434        H  0.02530991  0.33483191  0.95836342     0.10500
C435        C  0.97582038  0.33401710  0.07730849     0.63400
H436        H  0.98439967  0.26745474  0.06567636     0.07900
F437        F  0.96970937  0.14666436  0.93223787    -0.19600
F438        F  0.94009409  0.18589411  0.95329495    -0.15800
F439        F  0.94561317  0.13868449  0.98808583    -0.19300
F440        F  0.03658086  0.24433741  0.08600625    -0.22700
F441        F  0.06516392  0.24571675  0.03406580    -0.24200
F442        F  0.06567360  0.20153874  0.07464816    -0.18200
F443        F  0.96284351  0.31028259  0.10080372    -0.20700
F444        F  0.95530754  0.35517530  0.06306331    -0.21800
F445        F  0.99430567  0.35190305  0.10023077    -0.19000
F446        F  0.04277393  0.29041152  0.92040942    -0.19100
F447        F  0.01070938  0.24970692  0.92624552    -0.22900
F448        F  0.05174553  0.24569727  0.95796110    -0.24500
C449        C  0.97984651  0.78137795  0.99892187    -0.11300
C450        C  0.00343726  0.76700967  0.98172171     0.11200
C451        C  0.02419710  0.78796287  0.96492140    -0.03200
C452        C  0.02105238  0.82307292  0.96756913    -0.05900
C453        C  0.99790949  0.83746954  0.98624857    -0.16700
C454        C  0.97672631  0.81638209  0.00166464     0.02300
C455        C  0.00503179  0.72978115  0.98111184     0.12200
C456        C  0.04912649  0.77332619  0.94365435     0.62800
H457        H  0.03673344  0.83965980  0.95516598     0.12200
C458        C  0.95079855  0.83053324  0.02064492     0.55000
H459        H  0.96402012  0.76470041  0.01080804     0.08000
C460        C  0.01429212  0.71105859  0.01364763    -0.05800
C461        C  0.01371486  0.67579743  0.01178715    -0.06500
C462        C  0.00303798  0.65855616  0.97931661    -0.16100
C463        C  0.99280122  0.67770240  0.94709845    -0.01700
C464        C  0.99434841  0.71305102  0.94865460    -0.09200
C465        C  0.02408272  0.72823860  0.05059884     0.65000
H466        H  0.02136610  0.66136131  0.03630507     0.10500
C467        C  0.97936642  0.66161945  0.91169583     0.63400
H468        H  0.98666843  0.72820101  0.92470152     0.07900
F469        F  0.95786472  0.84436617  0.05609051    -0.19600
F470        F  0.93093065  0.80572181  0.02680735    -0.15800
F471        F  0.93894496  0.85493947  0.99712601    -0.19300
F472        F  0.03996311  0.75611082  0.91125357    -0.22700
F473        F  0.06350003  0.75143172  0.96766792    -0.24200
F474        F  0.06761184  0.79809826  0.93148002    -0.18200
F475        F  0.96784258  0.68528701  0.88678758    -0.20700
F476        F  0.95806045  0.64022762  0.92330728    -0.21800
F477        F  0.99922950  0.64400447  0.89098601    -0.19000
F478        F  0.03269508  0.70529146  0.07848033    -0.19100
F479        F  0.00246022  0.74672654  0.06626780    -0.22900
F480        F  0.04628179  0.74945033  0.04249683    -0.24500
C481        C  0.86580145  0.59127219  0.12266721    -0.11300
C482        C  0.87167044  0.62558585  0.12717236     0.11200
C483        C  0.89714668  0.63879191  0.11250141    -0.03200
C484        C  0.91551629  0.61727729  0.09258407    -0.05900
C485        C  0.90952154  0.58297482  0.08707372    -0.16700
C486        C  0.88428429  0.56955769  0.10294648     0.02300
C487        C  0.85117568  0.64719561  0.14819337     0.12200
C488        C  0.90488396  0.67557401  0.11781127     0.62800
H489        H  0.93480650  0.62732232  0.08073621     0.12200
C490        C  0.87698989  0.53246863  0.10016132     0.55000
H491        H  0.84642134  0.58165439  0.13471128     0.08000
C492        C  0.82813962  0.66243853  0.12915500    -0.05800
C493        C  0.81195452  0.68617426  0.14957104    -0.06500
C494        C  0.81774408  0.69431974  0.18843257    -0.16100
C495        C  0.83971674  0.67748296  0.20808013    -0.01700
C496        C  0.85593536  0.65391268  0.18762307    -0.09200
C497        C  0.82071835  0.65347238  0.08757105     0.65000
H498        H  0.79499707  0.69918422  0.13510287     0.10500
C499        C  0.84635246  0.68501879  0.25025739     0.63400
H500        H  0.87325652  0.64139779  0.20184052     0.07900
F501        F  0.87038904  0.52456286  0.06217718    -0.19600
F502        F  0.85420981  0.52409431  0.12314414    -0.15800
F503        F  0.89938641  0.51320727  0.11246651    -0.19300
F504        F  0.90690585  0.68282972  0.15694657    -0.22700
F505        F  0.88467678  0.69583118  0.10117495    -0.24200
F506        F  0.93030702  0.68340780  0.10069016    -0.18200
F507        F  0.86837840  0.66578613  0.26394890    -0.20700
F508        F  0.82316551  0.67816145  0.27299264    -0.21800
F509        F  0.85358053  0.71849797  0.25421804    -0.19000
F510        F  0.79865171  0.67251451  0.07368367    -0.19100
F511        F  0.81304017  0.61997792  0.08592632    -0.22900
F512        F  0.84340793  0.65881060  0.06338102    -0.24500
C513        C  0.13216183  0.57863974  0.13829700    -0.11300
C514        C  0.13127750  0.61391023  0.13848966     0.11200
C515        C  0.11124101  0.63073209  0.11514657    -0.03200
C516        C  0.09245019  0.61161105  0.09267859    -0.05900
C517        C  0.09360264  0.57634860  0.09160683    -0.16700
C518        C  0.11363473  0.55944008  0.11516182     0.02300
C519        C  0.15217590  0.63322907  0.16182242     0.12200
C520        C  0.11029135  0.66889379  0.11311244     0.62800
H521        H  0.07700137  0.62421143  0.07482161     0.12200
C522        C  0.11539548  0.52137671  0.11616373     0.55000
H523        H  0.14781005  0.56628347  0.15603182     0.08000
C524        C  0.14665306  0.64384441  0.20029537    -0.05800
C525        C  0.16381191  0.66895335  0.21676465    -0.06500
C526        C  0.18692928  0.68226858  0.19666555    -0.16100
C527        C  0.19460284  0.66814047  0.16044098    -0.01700
C528        C  0.17679100  0.64412568  0.14339680    -0.09200
C529        C  0.12260514  0.62893619  0.22349791     0.65000
H530        H  0.15854290  0.67955084  0.24474320     0.10500
C531        C  0.22071416  0.67805258  0.13798073     0.63400
H532        H  0.18149316  0.63489041  0.11453961     0.07900
F533        F  0.08920253  0.50760987  0.12283154    -0.19600
F534        F  0.13307025  0.51004392  0.14525352    -0.15800
F535        F  0.12562350  0.51006982  0.08106109    -0.19300
F536        F  0.13501256  0.68099885  0.09751900    -0.22700
F537        F  0.10676224  0.68215327  0.14981239    -0.24200
F538        F  0.08852362  0.68020811  0.09006307    -0.18200
F539        F  0.23621501  0.64950851  0.13048679    -0.20700
F540        F  0.23776048  0.70026116  0.15771471    -0.21800
F541        F  0.21308115  0.69268061  0.10303573    -0.19000
F542        F  0.12155364  0.64180506  0.26077676    -0.19100
F543        F  0.12599386  0.59451372  0.22636786    -0.22900
F544        F  0.09740400  0.63563058  0.20543260    -0.24500
C545        C  0.13343756  0.41224816  0.86534460    -0.11300
C546        C  0.13012233  0.37736931  0.86320591     0.11200
C547        C  0.10685632  0.36175801  0.88150021    -0.03200
C548        C  0.08805521  0.38186827  0.90230638    -0.05900
C549        C  0.09163968  0.41681859  0.90548881    -0.16700
C550        C  0.11437041  0.43248579  0.88569606     0.02300
C551        C  0.15250962  0.35792410  0.84413902     0.12200
C552        C  0.10060779  0.32428409  0.88034055     0.62800
H553        H  0.07047850  0.36989480  0.91681646     0.12200
C554        C  0.11845234  0.47030580  0.88509436     0.58200
H555        H  0.15146900  0.42347470  0.85122779     0.08000
C556        C  0.15145356  0.34931509  0.80433600    -0.05800
C557        C  0.17077439  0.32575824  0.79024047    -0.06500
C558        C  0.19145429  0.31210416  0.81450480    -0.16100
C559        C  0.19477713  0.32439436  0.85276459    -0.01700
C560        C  0.17469195  0.34661074  0.86729448    -0.09200
C561        C  0.12969798  0.36443910  0.77744061     0.65000
H562        H  0.16908979  0.31659714  0.76073971     0.10500
C563        C  0.21883658  0.31490806  0.87938057     0.63400
H564        H  0.17596213  0.35465278  0.89731389     0.07900
F565        F  0.13842098  0.48010409  0.85811240    -0.19600
F566        F  0.12723291  0.48099393  0.92123836    -0.15800
F567        F  0.09363435  0.48598987  0.87529335    -0.19300
F568        F  0.09996497  0.31173634  0.91790817    -0.22700
F569        F  0.11989275  0.30590654  0.85955054    -0.24200
F570        F  0.07468419  0.31942731  0.86339612    -0.18200
F571        F  0.23250287  0.34390329  0.89088360    -0.20700
F572        F  0.23832774  0.29436602  0.86187319    -0.21800
F573        F  0.20850591  0.29861699  0.91197053    -0.19000
F574        F  0.13237991  0.35272209  0.73981030    -0.19100
F575        F  0.13283143  0.39900284  0.77659718    -0.22900
F576        F  0.10313669  0.35651357  0.79052044    -0.24500
C577        C  0.11140513  0.13593056  0.89115897    -0.11300
C578        C  0.13425455  0.11989472  0.87385529     0.11200
C579        C  0.13697839  0.08459525  0.87752069    -0.03200
C580        C  0.11510141  0.06612205  0.89528354    -0.05900
C581        C  0.09154552  0.08206293  0.91138628    -0.16700
C582        C  0.09039698  0.11778334  0.91097557     0.02300
C583        C  0.15554055  0.14140960  0.85396033     0.12200
C584        C  0.16342044  0.06687273  0.86438564     0.62800
H585        H  0.11644196  0.03900076  0.89726378     0.12200
C586        C  0.06822294  0.13694380  0.93338041     0.55000
H587        H  0.11039546  0.16309566  0.88941746     0.08000
C588        C  0.15309678  0.15055397  0.81422909    -0.05800
C589        C  0.17239302  0.17370866  0.79832844    -0.06500
C590        C  0.19288951  0.18925473  0.82131043    -0.16100
C591        C  0.19533717  0.18007781  0.86109868    -0.01700
C592        C  0.17674215  0.15597358  0.87656325    -0.09200
C593        C  0.12880164  0.13822355  0.78961929     0.65000
H594        H  0.17021698  0.18198365  0.76843653     0.10500
C595        C  0.21616347  0.19590010  0.88896423     0.63400
H596        H  0.17804097  0.14943622  0.90715140     0.07900
F597        F  0.04249147  0.13335320  0.91558398    -0.19600
F598        F  0.07428981  0.17095429  0.93521941    -0.15800
F599        F  0.06676369  0.12485641  0.97111816    -0.19300
F600        F  0.18607896  0.07942456  0.88469973    -0.22700
F601        F  0.16785461  0.07202724  0.82513906    -0.24200
F602        F  0.16202600  0.03256145  0.87105667    -0.18200
F603        F  0.20175174  0.21382683  0.91683430    -0.20700
F604        F  0.23497592  0.21733883  0.87095449    -0.21800
F605        F  0.23134343  0.17083840  0.90720879    -0.19000
F606        F  0.13123888  0.14861288  0.75129213    -0.19100
F607        F  0.10405539  0.15079667  0.80427604    -0.22900
F608        F  0.12751572  0.10355478  0.79003787    -0.24500
C609        C  0.60956304  0.86008154  0.39129194    -0.11300
C610        C  0.62931776  0.87555544  0.36694745     0.11200
C611        C  0.62778559  0.91063660  0.36008794    -0.03200
C612        C  0.60810154  0.92964517  0.38114021    -0.05900
C613        C  0.58853378  0.91420162  0.40599118    -0.16700
C614        C  0.58861785  0.87866552  0.41015803     0.02300
C615        C  0.65029411  0.85365343  0.34764745     0.12200
C616        C  0.64601684  0.92752908  0.32954355     0.62800
H617        H  0.60714651  0.95665668  0.37730453     0.12200
C618        C  0.56663312  0.86031095  0.43410869     0.55000
H619        H  0.61040699  0.83302209  0.39472336     0.08000
C620        C  0.67496461  0.84283026  0.36678695    -0.05800
C621        C  0.69220371  0.81899716  0.34837219    -0.06500
C622        C  0.68542354  0.80587658  0.31173333    -0.16100
C623        C  0.66141811  0.81797804  0.29193915    -0.01700
C624        C  0.64398428  0.84117213  0.31067942    -0.09200
C625        C  0.68231810  0.85532558  0.40715153     0.65000
H626        H  0.71042498  0.80916553  0.36323171     0.10500
C627        C  0.65270971  0.80664939  0.25163885     0.63400
H628        H  0.62489391  0.84929060  0.29648285     0.07900
F629        F  0.57240950  0.82635384  0.43773668    -0.19600
F630        F  0.54087456  0.86340477  0.41621334    -0.15800
F631        F  0.56536415  0.87375639  0.47103010    -0.19300
F632        F  0.63984189  0.91440780  0.29340297    -0.22700
F633        F  0.67395605  0.92209230  0.33759366    -0.24200
F634        F  0.64158368  0.96187563  0.32788802    -0.18200
F635        F  0.62849683  0.78770365  0.25451503    -0.20700
F636        F  0.67285932  0.78780350  0.23304067    -0.21800
F637        F  0.64745265  0.83458874  0.22868511    -0.19000
F638        F  0.70807034  0.84350866  0.41943399    -0.19100
F639        F  0.66231924  0.84453848  0.43345712    -0.22900
F640        F  0.68332670  0.89004926  0.40729349    -0.24500
C641        C  0.35636225  0.92108583  0.38168139    -0.11300
C642        C  0.36183410  0.88834976  0.36923402     0.11200
C643        C  0.38875740  0.87452108  0.37499344    -0.03200
C644        C  0.40922161  0.89382905  0.39419396    -0.05900
C645        C  0.40371883  0.92637228  0.40821055    -0.16700
C646        C  0.37665575  0.94041963  0.40138900     0.02300
C647        C  0.33886650  0.86822708  0.35141033     0.12200
C648        C  0.39561424  0.83916330  0.36137910     0.62800
H649        H  0.42973318  0.88322519  0.39887242     0.12200
C650        C  0.36883799  0.97561743  0.41429257     0.55000
H651        H  0.33567635  0.93112425  0.37640684     0.08000
C652        C  0.31870396  0.85126185  0.37450946    -0.05800
C653        C  0.30115289  0.82737192  0.35675412    -0.06500
C654        C  0.30396979  0.81910707  0.31732538    -0.16100
C655        C  0.32344840  0.83700159  0.29395548    -0.01700
C656        C  0.33965846  0.86251069  0.31122427    -0.09200
C657        C  0.31675303  0.85712873  0.41802609     0.65000
H658        H  0.28641004  0.81305772  0.37415618     0.10500
C659        C  0.32856316  0.82765301  0.25179284     0.63400
H660        H  0.35485568  0.87634768  0.29407883     0.07900
F661        F  0.36736940  0.97666750  0.45439822    -0.19600
F662        F  0.34304906  0.98542645  0.39996022    -0.15800
F663        F  0.38849374  0.99848646  0.40090119    -0.19300
F664        F  0.39351999  0.83734907  0.32141574    -0.22700
F665        F  0.37729901  0.81627722  0.37806007    -0.24200
F666        F  0.42249121  0.82986216  0.37122268    -0.18200
F667        F  0.35051183  0.84581597  0.23579601    -0.20700
F668        F  0.30491694  0.83406115  0.22997685    -0.21800
F669        F  0.33512679  0.79391903  0.24912488    -0.19000
F670        F  0.29690013  0.83655119  0.43536249    -0.19100
F671        F  0.30937676  0.89011349  0.42496086    -0.22900
F672        F  0.34225172  0.85062705  0.43545580    -0.24500
C673        C  0.36967203  0.08744214  0.63414208    -0.11300
C674        C  0.37408457  0.12203948  0.63819393     0.11200
C675        C  0.39870256  0.13689999  0.62276321    -0.03200
C676        C  0.41734793  0.11668362  0.60159859    -0.05900
C677        C  0.41247845  0.08215660  0.59606825    -0.16700
C678        C  0.38853111  0.06703478  0.61352951     0.02300
C679        C  0.35217942  0.14246785  0.65760728     0.12200
C680        C  0.40539563  0.17387649  0.62898117     0.62800
H681        H  0.43593653  0.12784341  0.58890469     0.12200
C682        C  0.38300676  0.02951298  0.61139821     0.55000
H683        H  0.35099712  0.07660826  0.64695771     0.08000
C684        C  0.32778861  0.15308267  0.63760238    -0.05800
C685        C  0.31005044  0.17644470  0.65555671    -0.06500
C686        C  0.31596571  0.18922654  0.69249850    -0.16100
C687        C  0.33940216  0.17718945  0.71343360    -0.01700
C688        C  0.35695041  0.15339036  0.69574846    -0.09200
C689        C  0.32080915  0.14037663  0.59720061     0.65000
H690        H  0.29201253  0.18619020  0.64018829     0.10500
C691        C  0.34633533  0.19048757  0.75356960     0.63400
H692        H  0.37533618  0.14429211  0.71082141     0.07900
F693        F  0.36169797  0.01963794  0.63626714    -0.19600
F694        F  0.40682413  0.01198859  0.62183949    -0.15800
F695        F  0.37520992  0.02099885  0.57406207    -0.19300
F696        F  0.41034465  0.17951105  0.66799530    -0.22700
F697        F  0.38326509  0.19363029  0.61686571    -0.24200
F698        F  0.42895017  0.18392378  0.60853235    -0.18200
F699        F  0.32428819  0.18409338  0.77854304    -0.20700
F700        F  0.35103417  0.22477795  0.75173233    -0.21800
F701        F  0.37002071  0.17548802  0.76888146    -0.19000
F702        F  0.29764655  0.15640791  0.58170558    -0.19100
F703        F  0.31503843  0.10634337  0.59899306    -0.22900
F704        F  0.34308418  0.14587092  0.57231207    -0.24500
C705        C  0.51098443  0.28855512  0.46642047    -0.11300
C706        C  0.49455833  0.27151158  0.49387439     0.11200
C707        C  0.47944579  0.28993985  0.52195002    -0.03200
C708        C  0.48023758  0.32530230  0.52019391    -0.05900
C709        C  0.49598283  0.34255911  0.49182113    -0.16700
C710        C  0.51226595  0.32385874  0.46503228     0.02300
C711        C  0.49522829  0.23420576  0.49393576     0.12200
C712        C  0.46261446  0.27227802  0.55354127     0.62800
H713        H  0.46842752  0.33983027  0.54102442     0.12200
C714        C  0.53199733  0.34074145  0.43630739     0.55000
H715        H  0.52307209  0.27375398  0.44616609     0.08000
C716        C  0.47905565  0.21478059  0.46788222    -0.05800
C717        C  0.48102249  0.17949488  0.46978417    -0.06500
C718        C  0.49894244  0.16326908  0.49629734    -0.16100
C719        C  0.51577197  0.18302997  0.52153240    -0.01700
C720        C  0.51361164  0.21823323  0.51968329    -0.09200
C721        C  0.46035864  0.23129102  0.43765729     0.65000
H722        H  0.46862068  0.16422248  0.45029116     0.10500
C723        C  0.53672772  0.16736313  0.54931510     0.63400
H724        H  0.52630456  0.23379665  0.53851640     0.07900
F725        F  0.51683209  0.35733221  0.40793776    -0.19600
F726        F  0.54914369  0.31773487  0.41801884    -0.15800
F727        F  0.54902121  0.36334490  0.45556940    -0.19300
F728        F  0.48008905  0.25292418  0.57647244    -0.22700
F729        F  0.44260831  0.25175442  0.53688260    -0.24200
F730        F  0.44912479  0.29488940  0.57750085    -0.18200
F731        F  0.55316334  0.14469448  0.52950741    -0.20700
F732        F  0.52279709  0.15107712  0.57921216    -0.21800
F733        F  0.55428913  0.19116860  0.56562552    -0.19000
F734        F  0.44487575  0.20785118  0.41717691    -0.19100
F735        F  0.47658743  0.24909165  0.41137047    -0.22900
F736        F  0.44191111  0.25305969  0.45538331    -0.24500
C737        C  0.52607614  0.71676718  0.48589032    -0.11300
C738        C  0.50681574  0.73394062  0.50901108     0.11200
C739        C  0.48720229  0.71560701  0.53159329    -0.03200
C740        C  0.48850693  0.68021378  0.53168039    -0.05900
C741        C  0.50754432  0.66286426  0.50803219    -0.16700
C742        C  0.52659726  0.68144967  0.48451328     0.02300
C743        C  0.50645965  0.77122844  0.50670947     0.12200
C744        C  0.46422198  0.73340311  0.55390796     0.62800
H745        H  0.47372795  0.66573743  0.54883879     0.12200
C746        C  0.54708394  0.66433911  0.45741937     0.55000
H747        H  0.54021844  0.73144973  0.46793532     0.08000
C748        C  0.52445037  0.79155865  0.52926789    -0.05800
C749        C  0.52219164  0.82677731  0.52603733    -0.06500
C750        C  0.50304684  0.84205069  0.50036543    -0.16100
C751        C  0.48563179  0.82139548  0.47708011    -0.01700
C752        C  0.48788932  0.78625571  0.48052409    -0.09200
C753        C  0.54599919  0.77597428  0.55627827     0.65000
H754        H  0.53561464  0.84274574  0.54337816     0.10500
C755        C  0.46400390  0.83599605  0.44967295     0.63400
H756        H  0.47494057  0.76995398  0.46290300     0.07900
F757        F  0.56661527  0.68670161  0.44249635    -0.19600
F758        F  0.53257992  0.65059574  0.42657803    -0.15800
F759        F  0.56142241  0.63930887  0.47703807    -0.19300
F760        F  0.44655169  0.74947267  0.52803747    -0.22700
F761        F  0.47561949  0.75695336  0.57874169    -0.24200
F762        F  0.44837127  0.71116870  0.57585964    -0.18200
F763        F  0.47720503  0.85175530  0.41877000    -0.20700
F764        F  0.44743073  0.85883066  0.46914730    -0.21800
F765        F  0.44667769  0.81123147  0.43499466    -0.19000
F766        F  0.56116218  0.80013097  0.57607873    -0.19100
F767        F  0.56458021  0.75691132  0.53499394    -0.22900
F768        F  0.53290183  0.75553650  0.58337258    -0.24500
C769        C  0.65059361  0.64014010  0.29244900    -0.11300
C770        C  0.65272964  0.63161318  0.33198483     0.11200
C771        C  0.67350879  0.64727073  0.35512755    -0.03200
C772        C  0.69033894  0.67239182  0.33823871    -0.05900
C773        C  0.68644649  0.68307909  0.29973690    -0.16700
C774        C  0.66645852  0.66651007  0.27607347     0.02300
C775        C  0.63069371  0.60998199  0.34988805     0.12200
C776        C  0.67718639  0.63857039  0.39790506     0.62800
H777        H  0.70573080  0.68544830  0.35571390     0.12200
C778        C  0.65982737  0.67644238  0.23442483     0.55000
H779        H  0.63503272  0.62753461  0.27479162     0.08000
C780        C  0.60372596  0.62275743  0.35783062    -0.05800
C781        C  0.58549252  0.60357859  0.38099228    -0.06500
C782        C  0.59283780  0.57186704  0.39622644    -0.16100
C783        C  0.61928609  0.55803636  0.38570513    -0.01700
C784        C  0.63767257  0.57754552  0.36258672    -0.09200
C785        C  0.59403163  0.65652840  0.34189567     0.65000
H786        H  0.56514998  0.61372109  0.38764544     0.10500
C787        C  0.62834621  0.52299570  0.39801810     0.63400
H788        H  0.65815501  0.56804891  0.35507343     0.07900
F789        F  0.63203349  0.68580595  0.23196208    -0.19600
F790        F  0.66413098  0.64911509  0.21051448    -0.15800
F791        F  0.67596810  0.70279749  0.22070607    -0.19300
F792        F  0.68630820  0.60579045  0.40162715    -0.22700
F793        F  0.65208935  0.64215230  0.41741830    -0.24200
F794        F  0.69668508  0.65919590  0.41568337    -0.18200
F795        F  0.65341531  0.51384102  0.38096583    -0.20700
F796        F  0.60831479  0.49978287  0.38694884    -0.21800
F797        F  0.63208029  0.52173164  0.43783125    -0.19000
F798        F  0.56818463  0.66563540  0.35651590    -0.19100
F799        F  0.59162577  0.65471641  0.30193728    -0.22900
F800        F  0.61292221  0.68153706  0.35145442    -0.24500
C801        C  0.35536715  0.66643226  0.32018664    -0.11300
C802        C  0.34925108  0.65234784  0.35666312     0.11200
C803        C  0.32344786  0.65980132  0.37491690    -0.03200
C804        C  0.30478623  0.68188767  0.35615905    -0.05900
C805        C  0.31123236  0.69654951  0.32009314    -0.16700
C806        C  0.33650006  0.68790608  0.30107787     0.02300
C807        C  0.37101626  0.63171367  0.37625628     0.12200
C808        C  0.31613489  0.64542932  0.41463830     0.62800
H809        H  0.28559745  0.68931463  0.37042306     0.12200
C810        C  0.34500405  0.70149826  0.26144404     0.55000
H811        H  0.37531032  0.66090457  0.30667928     0.08000
C812        C  0.37502056  0.59728218  0.36764100    -0.05800
C813        C  0.39491662  0.57905375  0.38919122    -0.06500
C814        C  0.41138953  0.59449705  0.41768586    -0.16100
C815        C  0.40834366  0.62922279  0.42513045    -0.01700
C816        C  0.38808364  0.64735107  0.40409367    -0.09200
C817        C  0.35856445  0.57995189  0.33572723     0.65000
H818        H  0.39807586  0.55255516  0.38365992     0.10500
C819        C  0.42594158  0.64667516  0.45579614     0.63400
H820        H  0.38513980  0.67390655  0.40946528     0.07900
F821        F  0.35322231  0.67514328  0.23803959    -0.19600
F822        F  0.36728246  0.72339774  0.26578397    -0.15800
F823        F  0.32363360  0.71816071  0.24245052    -0.19300
F824        F  0.33491087  0.65697582  0.44207280    -0.22700
F825        F  0.31715255  0.61073328  0.41368467    -0.24200
F826        F  0.28955308  0.65467968  0.42629741    -0.18200
F827        F  0.45384452  0.64570044  0.44537678    -0.20700
F828        F  0.42249600  0.63063725  0.49126250    -0.21800
F829        F  0.41847377  0.68003098  0.46017741    -0.19000
F830        F  0.36612707  0.54656164  0.33190067    -0.19100
F831        F  0.36349965  0.59579765  0.30053677    -0.22900
F832        F  0.33029792  0.58114373  0.34391142    -0.24500
C833        C  0.31738713  0.35131858  0.62899814    -0.11300
C834        C  0.34398662  0.35983789  0.64335525     0.11200
C835        C  0.35336357  0.34561233  0.67887354    -0.03200
C836        C  0.33640727  0.32171599  0.69772451    -0.05900
C837        C  0.31074901  0.31149931  0.68207377    -0.16700
C838        C  0.30062531  0.32680757  0.64759207     0.02300
C839        C  0.36268698  0.38185260  0.61971969     0.12200
C840        C  0.38167220  0.35465411  0.69604138     0.62800
H841        H  0.34363823  0.30946888  0.72404983     0.12200
C842        C  0.27273501  0.31648624  0.63005849     0.55000
H843        H  0.31036412  0.36310147  0.60229973     0.08000
C844        C  0.37857018  0.36895297  0.58837245    -0.05800
C845        C  0.39928857  0.38950487  0.57132264    -0.06500
C846        C  0.40422492  0.42231702  0.58437970    -0.16100
C847        C  0.38780281  0.43553205  0.61488583    -0.01700
C848        C  0.36687204  0.41514238  0.63165900    -0.09200
C849        C  0.37395713  0.33346680  0.57350452     0.65000
H850        H  0.41196801  0.38006780  0.54770385     0.10500
C851        C  0.39324317  0.47047761  0.63066696     0.63400
H852        H  0.35423968  0.42459260  0.65530509     0.07900
F853        F  0.26777460  0.33263167  0.59500672    -0.19600
F854        F  0.25128339  0.32459288  0.65518744    -0.15800
F855        F  0.27227671  0.28221853  0.62350253    -0.19300
F856        F  0.38220991  0.38831201  0.70571016    -0.22700
F857        F  0.40260577  0.34826577  0.66937868    -0.24200
F858        F  0.38736045  0.33628079  0.72937664    -0.18200
F859        F  0.37768817  0.47670499  0.66377274    -0.20700
F860        F  0.38625576  0.49423351  0.60291813    -0.21800
F861        F  0.42123278  0.47392660  0.64013722    -0.19000
F862        F  0.39197057  0.32578207  0.54335178    -0.19100
F863        F  0.34690503  0.33012889  0.55984466    -0.22900
F864        F  0.37829325  0.31047293  0.60316083    -0.24500
C865        C  0.87445133  0.08574596  0.85553414    -0.11300
C866        C  0.86571174  0.11699553  0.86982453     0.11200
C867        C  0.87624843  0.12869742  0.90588799    -0.03200
C868        C  0.89568668  0.10879905  0.92611370    -0.05900
C869        C  0.90523627  0.07835077  0.91108818    -0.16700
C870        C  0.89442919  0.06626084  0.87554689     0.02300
C871        C  0.84610363  0.13769913  0.84629309     0.12200
C872        C  0.86758946  0.16244674  0.92251515     0.62800
H873        H  0.90377298  0.11696859  0.95382671     0.12200
C874        C  0.90428076  0.03307191  0.85901396     0.55000
H875        H  0.86578156  0.07699810  0.82831941     0.08000
C876        C  0.85544757  0.15757618  0.81458674    -0.05800
C877        C  0.83699112  0.18126820  0.79833457    -0.06500
C878        C  0.80992589  0.18599798  0.81321243    -0.16100
C879        C  0.80009519  0.16463623  0.84350008    -0.01700
C880        C  0.81831862  0.14028679  0.85882816    -0.09200
C881        C  0.88507141  0.15465588  0.79901930     0.65000
H882        H  0.84408017  0.19776564  0.77516824     0.10500
C883        C  0.77176693  0.16778601  0.86303263     0.63400
H884        H  0.81134179  0.12450117  0.88275831     0.07900
F885        F  0.93296562  0.03394990  0.85383404    -0.19600
F886        F  0.89199441  0.02628535  0.82347258    -0.15800
F887        F  0.89756694  0.00723634  0.88444586    -0.19300
F888        F  0.83930183  0.16237307  0.93067555    -0.22700
F889        F  0.87343418  0.18779024  0.89604539    -0.24200
F890        F  0.88162948  0.16964654  0.95666223    -0.18200
F891        F  0.77559938  0.17912335  0.90058321    -0.20700
F892        F  0.75898668  0.13654246  0.86451271    -0.21800
F893        F  0.75386886  0.18956853  0.84418787    -0.19000
F894        F  0.89045595  0.17806304  0.77002654    -0.19100
F895        F  0.88897848  0.12301173  0.78360486    -0.22900
F896        F  0.90418720  0.15975302  0.82859216    -0.24500
C897        C  0.86248207  0.41004198  0.87890675    -0.11300
C898        C  0.86549890  0.37512365  0.87749473     0.11200
C899        C  0.88938457  0.35971179  0.89402523    -0.03200
C900        C  0.90945081  0.38010763  0.91230924    -0.05900
C901        C  0.90633160  0.41514964  0.91447636    -0.16700
C902        C  0.88244488  0.43052286  0.89735144     0.02300
C903        C  0.84408364  0.35521372  0.85666431     0.12200
C904        C  0.89383358  0.32192726  0.89177813     0.62800
H905        H  0.92780320  0.36874378  0.92526063     0.12200
C906        C  0.87792957  0.46827856  0.89804526     0.55000
H907        H  0.84416121  0.42108533  0.86550034     0.08000
C908        C  0.81947709  0.34331525  0.87511147    -0.05800
C909        C  0.80248051  0.32017435  0.85515946    -0.06500
C910        C  0.80967086  0.30881892  0.81794870    -0.16100
C911        C  0.83333209  0.32244212  0.79870820    -0.01700
C912        C  0.84984259  0.34617524  0.81824387    -0.09200
C913        C  0.81186192  0.35412898  0.91603258     0.65000
H914        H  0.78430189  0.30928859  0.86924720     0.10500
C915        C  0.84198643  0.31051169  0.75866426     0.63400
H916        H  0.86851850  0.35628340  0.80464719     0.07900
F917        F  0.87141205  0.47808716  0.93541378    -0.19600
F918        F  0.85612887  0.47802826  0.87406550    -0.15800
F919        F  0.90181459  0.48484270  0.88554744    -0.19300
F920        F  0.89740615  0.31257313  0.85347873    -0.22700
F921        F  0.87097560  0.30502934  0.90695681    -0.24200
F922        F  0.91724294  0.31186140  0.91240112    -0.18200
F923        F  0.86546139  0.32737778  0.74515693    -0.20700
F924        F  0.82050594  0.31593264  0.73252282    -0.21800
F925        F  0.84809808  0.27658192  0.75999405    -0.19000
F926        F  0.78711082  0.33948222  0.92850752    -0.19100
F927        F  0.80861111  0.38862241  0.91705630    -0.22900
F928        F  0.83274762  0.34498059  0.94173828    -0.24500
C929        C  0.62956123  0.08761542  0.63750898    -0.11300
C930        C  0.63752480  0.11894366  0.62215191     0.11200
C931        C  0.62615483  0.13001991  0.58626287    -0.03200
C932        C  0.60685750  0.10918760  0.56707819    -0.05900
C933        C  0.59759135  0.07891182  0.58360599    -0.16700
C934        C  0.60889338  0.06784675  0.61944522     0.02300
C935        C  0.65627119  0.14083345  0.64537676     0.12200
C936        C  0.63378007  0.16403881  0.56879923     0.62800
H937        H  0.59846517  0.11663664  0.53916682     0.12200
C938        C  0.59841578  0.03600226  0.63903233     0.55000
H939        H  0.63878368  0.07953581  0.66473740     0.08000
C940        C  0.64607118  0.15943203  0.67733936    -0.05800
C941        C  0.66388572  0.18298596  0.69490693    -0.06500
C942        C  0.69059141  0.18996551  0.67998362    -0.16100
C943        C  0.70089152  0.17117275  0.64815845    -0.01700
C944        C  0.68391423  0.14559787  0.63276811    -0.09200
C945        C  0.61594848  0.15620295  0.69109111     0.65000
H946        H  0.65640007  0.19798485  0.71892270     0.10500
C947        C  0.72844877  0.17814854  0.62755013     0.63400
H948        H  0.69152191  0.13095387  0.60849415     0.07900
F949        F  0.61196679  0.02991928  0.67393141    -0.19600
F950        F  0.60277255  0.00880890  0.61500943    -0.15800
F951        F  0.57014133  0.03891915  0.64659059    -0.19300
F952        F  0.66178179  0.16466631  0.55891710    -0.22700
F953        F  0.62851842  0.18924967  0.59530587    -0.24200
F954        F  0.61846842  0.17092284  0.53556838    -0.18200
F955        F  0.74534322  0.15010402  0.63039046    -0.20700
F956        F  0.74298456  0.20528278  0.64227553    -0.21800
F957        F  0.72321115  0.18465528  0.58868231    -0.19000
F958        F  0.61036687  0.17722085  0.72205170    -0.19100
F959        F  0.61047494  0.12365071  0.70306368    -0.22900
F960        F  0.59798837  0.16460849  0.66109188    -0.24500
C961        C  0.60912744  0.36234012  0.61270979    -0.11300
C962        C  0.63316334  0.37923064  0.62558156     0.11200
C963        C  0.63680346  0.41368558  0.61637869    -0.03200
C964        C  0.61538138  0.43043546  0.59597070    -0.05900
C965        C  0.59056034  0.41398738  0.58474919    -0.16700
C966        C  0.58754772  0.37904483  0.59264008     0.02300
C967        C  0.65428934  0.35933427  0.64756375     0.12200
C968        C  0.66282068  0.43287951  0.62877287     0.62800
H969        H  0.61764253  0.45692600  0.58923458     0.12200
C970        C  0.56227850  0.35898979  0.57908309     0.55000
H971        H  0.60733251  0.33571620  0.61901781     0.08000
C972        C  0.64953910  0.34858984  0.68640529    -0.05800
C973        C  0.66791539  0.32499954  0.70312842    -0.06500
C974        C  0.69093719  0.31265147  0.68251727    -0.16100
C975        C  0.69703984  0.32554537  0.64510002    -0.01700
C976        C  0.67814925  0.34814137  0.62775142    -0.09200
C977        C  0.62471973  0.36115413  0.70966829     0.65000
H978        H  0.66361014  0.31458341  0.73166934     0.10500
C979        C  0.72337189  0.31512031  0.62378260     0.63400
H980        H  0.68135849  0.35634361  0.59802004     0.07900
F981        F  0.53869459  0.36895535  0.59909208    -0.19600
F982        F  0.56561540  0.32483493  0.58544922    -0.15800
F983        F  0.55826871  0.36392618  0.53966962    -0.19300
F984        F  0.68638098  0.41870296  0.61249341    -0.22700
F985        F  0.66523084  0.43197683  0.66878625    -0.24200
F986        F  0.66191571  0.46622532  0.61711277    -0.18200
F987        F  0.72272856  0.28105574  0.61611571    -0.20700
F988        F  0.74643358  0.32222537  0.64661592    -0.21800
F989        F  0.72640821  0.33217107  0.58885435    -0.19000
F990        F  0.62596199  0.35062928  0.74805238    -0.19100
F991        F  0.60007308  0.34919948  0.69388468    -0.22900
F992        F  0.62432172  0.39589250  0.70925867    -0.24500
loop_ 
_geom_bond_atom_site_label_1 
_geom_bond_atom_site_label_2 
_geom_bond_distance 
_geom_bond_site_symmetry_2 
_ccdc_geom_bond_type 
C1            C2   1.395       .  A
C1            C6   1.414       .  A
C1          C974   1.484       .  S
C2            C3   1.395       .  A
C2           H21   1.086       .  S
C3            C4   1.412       .  A
C3          C942   1.480       .  S
C4            C5   1.420       .  A
C4           C11   1.406       .  A
C5            C6   1.422       .  A
C5           C10   1.419       .  A
C6            C7   1.405       .  A
C7            C8   1.396       .  A
C7           H17   1.083       .  S
C8            C9   1.407       .  A
C8           H18   1.083       .  S
C9           C10   1.419       .  A
C9           C16   1.413       .  A
C10          C13   1.422       .  A
C11          C12   1.393       .  A
C11          H19   1.082       .  S
C12          C13   1.405       .  A
C12          H20   1.083       .  S
C13          C14   1.415       .  A
C14          C15   1.397       .  A
C14         C878   1.487       .  S
C15          C16   1.397       .  A
C15          H22   1.086       .  S
C16         C910   1.481       .  S
Zr23         O24   2.439       .  S
Zr23         O25   2.426       .  S
Zr23         O26   2.424       .  S
Zr23         O29   2.425       .  S
Zr23         O31   2.376       .  S
Zr23         O32   2.379       .  S
Zr23         O33   2.400       .  S
Zr23         O34   2.392       .  S
O24          H80   0.990       .  S
O24          H88   0.990       .  S
O25          C45   1.282       .  A
O26          C47   1.281       .  A
O27         Zr37   2.442       .  S
O27          C46   1.285       .  A
O28         Zr36   2.435       .  S
O28          C47   1.284       .  A
O29          C46   1.286       .  A
O30         Zr38   2.441       .  S
O30          C45   1.285       .  A
O31         Zr36   2.387       .  S
O31         Zr38   2.374       .  S
O32         Zr37   2.389       .  S
O32         Zr38   2.380       .  S
O32          H67   0.966       .  S
O33         Zr36   2.392       .  S
O33         Zr53   2.400       .  S
O33          H70   0.966       .  S
O34         Zr37   2.387       .  S
O34         Zr53   2.392       .  S
Zr35         O60   2.438       .  S
Zr35         O54   2.427       .  S
Zr35         O62   2.444       .  S
Zr35         O50   2.443       .  S
Zr35         O41   2.406       .  S
Zr35         O42   2.408       .  S
Zr35         O43   2.376       .  S
Zr35         O44   2.379       .  S
Zr36         O55   2.436       .  S
Zr36         O48   2.435       .  S
Zr36         O49   2.427       .  S
Zr36         O42   2.400       .  S
Zr36         O43   2.387       .  S
Zr37         O39   2.434       .  S
Zr37         O61   2.435       .  S
Zr37         O63   2.431       .  S
Zr37         O41   2.398       .  S
Zr37         O44   2.387       .  S
Zr38         O64   2.438       .  S
Zr38         O65   2.437       .  S
Zr38         O40   2.438       .  S
Zr38         O41   2.402       .  S
Zr38         O42   2.407       .  S
O39          H76   0.990       .  S
O40          H71   0.990       .  S
O40          H85   0.990       .  S
O42          H68   0.965       .  S
O43         Zr53   2.372       .  S
O44         Zr53   2.372       .  S
O44          H69   0.966       .  S
C45         C741   1.487       .  S
C46         C782   1.502       .  S
C47         C814   1.472       .  S
O48          H84   0.990       .  S
O49          C51   1.283       .  A
O50          C51   1.287       .  A
C51         C846   1.478       .  S
O52         Zr53   2.439       .  S
O52          H81   0.990       .  S
Zr53         O56   2.436       .  S
Zr53         O57   2.438       .  S
Zr53         O58   2.438       .  S
O54          C59   1.284       .  A
O55          H72   0.990       .  S
O55          H87   0.990       .  S
O56          H73   0.990       .  S
O57          H77   0.989       .  S
O57          H86   0.990       .  S
O58          C59   1.285       .  A
C59         C709   1.487       .  S
O60          H79   0.990       .  S
O60          H83   0.990       .  S
O61          H75   0.990       .  S
O61          H82   0.990       .  S
O62          C66   1.286       .  A
O63          C66   1.285       .  A
O64          H74   0.990       .  S
O65          H78   0.990       .  S
C66         C965   1.490       .  S
Zr89         O90   2.438       .  S
Zr89         O91   2.428       .  S
Zr89         O92   2.440       .  S
Zr89         O95   2.440       .  S
Zr89         O97   2.380       .  S
Zr89         O98   2.381       .  S
Zr89         O99   2.407       .  S
Zr89        O100   2.398       .  S
O90         H146   0.990       .  S
O90         H154   0.990       .  S
O91         C111   1.282       .  A
O92         C113   1.285       .  A
O93        Zr103   2.439       .  S
O93         C112   1.285       .  A
O94        Zr102   2.438       .  S
O94         C113   1.285       .  A
O95         C112   1.287       .  A
O96        Zr104   2.439       .  S
O96         C111   1.285       .  A
O97        Zr102   2.395       .  S
O97        Zr104   2.370       .  S
O98        Zr103   2.390       .  S
O98        Zr104   2.376       .  S
O98         H133   0.966       .  S
O99        Zr102   2.405       .  S
O99        Zr119   2.394   1_545  S
O99         H136   0.966       .  S
O100       Zr103   2.393       .  S
O100       Zr119   2.396   1_545  S
Zr101       O126   2.440       .  S
Zr101       O120   2.441       .  S
Zr101       O128   2.446       .  S
Zr101       O116   2.429       .  S
Zr101       O107   2.405   1_565  S
Zr101       O108   2.409   1_565  S
Zr101       O109   2.378       .  S
Zr101       O110   2.377       .  S
Zr102       O121   2.436   1_545  S
Zr102       O114   2.437       .  S
Zr102       O115   2.455   1_545  S
Zr102       O108   2.395       .  S
Zr102       O109   2.384   1_545  S
Zr103       O105   2.433   1_545  S
Zr103       O127   2.437       .  S
Zr103       O129   2.439   1_545  S
Zr103       O107   2.397       .  S
Zr103       O110   2.385   1_545  S
Zr104       O130   2.435       .  S
Zr104       O131   2.435       .  S
Zr104       O106   2.440       .  S
Zr104       O107   2.408       .  S
Zr104       O108   2.402       .  S
O105        H142   0.990       .  S
O106        H137   0.990       .  S
O106        H151   0.990       .  S
O108        H134   0.967       .  S
O109       Zr119   2.371       .  S
O110       Zr119   2.377       .  S
O110        H135   0.966       .  S
C111        C718   1.489       .  S
C112        C677   1.492       .  S
C113        C933   1.475       .  S
O114        H150   0.990       .  S
O115        C117   1.289       .  A
O116        C117   1.284       .  A
C117        C613   1.486       .  S
O118       Zr119   2.434       .  S
O118        H147   0.990       .  S
Zr119       O122   2.435       .  S
Zr119       O123   2.438       .  S
Zr119       O124   2.425       .  S
O120        C125   1.286       .  A
O121        H138   0.990       .  S
O121        H153   0.990       .  S
O122        H139   0.990       .  S
O123        H143   0.990       .  S
O123        H152   0.990       .  S
O124        C125   1.283       .  A
C125        C750   1.489       .  S
O126        H145   0.990       .  S
O126        H149   0.990       .  S
O127        H141   0.990       .  S
O127        H148   0.990       .  S
O128        C132   1.289       .  A
O129        C132   1.284       .  A
O130        H140   0.990       .  S
O131        H144   0.990       .  S
C132        C645   1.505       .  S
C155        C156   1.395       .  A
C155        C160   1.412       .  A
C155        C837   1.484       .  S
C156        C157   1.396       .  A
C156        H175   1.086       .  S
C157        C158   1.415       .  A
C157        C686   1.482       .  S
C158        C159   1.420       .  A
C158        C165   1.406       .  A
C159        C160   1.422       .  A
C159        C164   1.419       .  A
C160        C161   1.404       .  A
C161        C162   1.391       .  A
C161        H171   1.083       .  S
C162        C163   1.405       .  A
C162        H172   1.083       .  S
C163        C164   1.419       .  A
C163        C170   1.410       .  A
C164        C167   1.423       .  A
C165        C166   1.397       .  A
C165        H173   1.083       .  S
C166        C167   1.406       .  A
C166        H174   1.083       .  S
C167        C168   1.418       .  A
C168        C169   1.397       .  A
C168        C590   1.487       .  S
C169        C170   1.396       .  A
C169        H176   1.086       .  S
C170        C558   1.477       .  S
Zr177       O178   2.439   1_455  S
Zr177       O179   2.438       .  S
Zr177       O180   2.443       .  S
Zr177       O183   2.443   1_455  S
Zr177       O185   2.384   1_554  S
Zr177       O186   2.375   1_454  S
Zr177       O187   2.411       .  S
Zr177       O188   2.403   1_455  S
O178        H234   0.991   1_655  S
O178        H242   0.990   1_655  S
O179        C199   1.286   1_554  A
O180        C201   1.286       .  A
O181       Zr191   2.440   1_554  S
O181        C200   1.285       .  A
O182       Zr190   2.455   1_554  S
O182        C201   1.288       .  A
O183        C200   1.288       .  A
O184       Zr192   2.424       .  S
O184        C199   1.280       .  A
O185       Zr190   2.397       .  S
O185       Zr192   2.384       .  S
O186       Zr191   2.388       .  S
O186       Zr192   2.372   1_655  S
O186        H221   0.966       .  S
O187       Zr190   2.398   1_554  S
O187       Zr207   2.398       .  S
O187        H224   0.966       .  S
O188       Zr191   2.389   1_554  S
O188       Zr207   2.402   1_655  S
Zr189       O214   2.444       .  S
Zr189       O208   2.437   1_655  S
Zr189       O216   2.440       .  S
Zr189       O204   2.438   1_655  S
Zr189       O195   2.401       .  S
Zr189       O196   2.407   1_655  S
Zr189       O197   2.380   1_656  S
Zr189       O198   2.381   1_556  S
Zr190       O209   2.433   1_556  S
Zr190       O202   2.433       .  S
Zr190       O203   2.442       .  S
Zr190       O196   2.402       .  S
Zr190       O197   2.389   1_556  S
Zr191       O193   2.434   1_556  S
Zr191       O215   2.437       .  S
Zr191       O217   2.423       .  S
Zr191       O195   2.396       .  S
Zr191       O198   2.392   1_556  S
Zr192       O218   2.435   1_455  S
Zr192       O219   2.437   1_455  S
Zr192       O194   2.437       .  S
Zr192       O195   2.395   1_455  S
Zr192       O196   2.393       .  S
O193        H230   0.990       .  S
O194        H225   0.990       .  S
O194        H239   0.990       .  S
O196        H222   0.966       .  S
O197       Zr207   2.373       .  S
O198       Zr207   2.369   1_655  S
O198        H223   0.966       .  S
C199        C462   1.498       .  S
C200        C485   1.499       .  S
C201        C517   1.495       .  S
O202        H238   0.990       .  S
O203        C205   1.286       .  A
O204        C205   1.287       .  A
C205        C549   1.489       .  S
O206       Zr207   2.434       .  S
O206        H235   0.990   1_455  S
Zr207       O210   2.435       .  S
Zr207       O211   2.438   1_455  S
Zr207       O212   2.442       .  S
O208        C213   1.286   1_556  A
O209        H226   0.990       .  S
O209        H241   0.989       .  S
O210        H227   0.990       .  S
O211        H231   0.990       .  S
O211        H240   0.989       .  S
O212        C213   1.284       .  A
C213        C430   1.501       .  S
O214        H233   0.990       .  S
O214        H237   0.990   1_655  S
O215        H229   0.990       .  S
O215        H236   0.989       .  S
O216        C220   1.287       .  A
O217        C220   1.282       .  A
O218        H228   0.990       .  S
O219        H232   0.990       .  S
C220        C901   1.485       .  S
Zr243       O244   2.440   1_655  S
Zr243       O245   2.436       .  S
Zr243       O246   2.433       .  S
Zr243       O249   2.414   1_655  S
Zr243       O251   2.377   1_554  S
Zr243       O252   2.380   1_654  S
Zr243       O253   2.403       .  S
Zr243       O254   2.405   1_655  S
O244        H300   0.991   1_455  S
O244        H308   0.990   1_455  S
O245        C265   1.284   1_554  A
O246        C267   1.283       .  A
O247       Zr257   2.440   1_554  S
O247        C266   1.287       .  A
O248       Zr256   2.446       .  S
O248        C267   1.285       .  A
O249        C266   1.280       .  A
O250       Zr258   2.429       .  S
O250        C265   1.283       .  A
O251       Zr256   2.394   1_556  S
O251       Zr258   2.387       .  S
O252       Zr257   2.387       .  S
O252       Zr258   2.364   1_455  S
O252        H287   0.965       .  S
O253       Zr256   2.393       .  S
O253       Zr273   2.399   1_665  S
O253        H290   0.964       .  S
O254       Zr257   2.395   1_554  S
O254       Zr273   2.401   1_565  S
Zr255       O280   2.437       .  S
Zr255       O274   2.429       .  S
Zr255       O282   2.450   1_655  S
Zr255       O270   2.443       .  S
Zr255       O261   2.403   1_645  S
Zr255       O262   2.406   1_545  S
Zr255       O263   2.380   1_556  S
Zr255       O264   2.380   1_656  S
Zr256       O275   2.434   1_565  S
Zr256       O268   2.435   1_554  S
Zr256       O269   2.427   1_564  S
Zr256       O262   2.402   1_554  S
Zr256       O263   2.394   1_565  S
Zr257       O259   2.436   1_566  S
Zr257       O281   2.436       .  S
Zr257       O283   2.442   1_565  S
Zr257       O261   2.399       .  S
Zr257       O264   2.389   1_566  S
Zr258       O284   2.435   1_655  S
Zr258       O285   2.437       .  S
Zr258       O260   2.437       .  S
Zr258       O261   2.399   1_655  S
Zr258       O262   2.395       .  S
O259        H296   0.990       .  S
O260        H291   0.990       .  S
O260        H305   0.990       .  S
O262        H288   0.965   1_565  S
O263       Zr273   2.376   1_655  S
O264       Zr273   2.369       .  S
O264        H289   0.968       .  S
C265        C453   1.479       .  S
C266        C398   1.480       .  S
C267        C366   1.480       .  S
O268        H304   0.990       .  S
O269        C271   1.283       .  A
O270        C271   1.287       .  A
C271        C869   1.472       .  S
O272       Zr273   2.439       .  S
O272        H301   0.990       .  S
Zr273       O276   2.437   1_455  S
Zr273       O277   2.438       .  S
Zr273       O278   2.440       .  S
O274        C279   1.283   1_656  A
O275        H292   0.990       .  S
O275        H307   0.990       .  S
O276        H293   0.990       .  S
O277        H297   0.990       .  S
O277        H306   0.990       .  S
O278        C279   1.285       .  A
C279        C421   1.488       .  S
O280        H299   0.990   1_655  S
O280        H303   0.990   1_655  S
O281        H295   0.990       .  S
O281        H302   0.990       .  S
O282        C286   1.288       .  A
O283        C286   1.287       .  A
O284        H294   0.990       .  S
O285        H298   0.990       .  S
C286        C581   1.494       .  S
C309        C310   1.398       .  A
C309        C314   1.417       .  A
C309        C654   1.489       .  S
C310        C311   1.396       .  A
C310        H329   1.086       .  S
C311        C312   1.414       .  A
C311        C805   1.483       .  S
C312        C313   1.420       .  A
C312        C319   1.406       .  A
C313        C314   1.423       .  A
C313        C318   1.422       .  A
C314        C315   1.405       .  A
C315        C316   1.396       .  A
C315        H325   1.083       .  S
C316        C317   1.407       .  A
C316        H326   1.083       .  S
C317        C318   1.420       .  A
C317        C324   1.415       .  A
C318        C321   1.423       .  A
C319        C320   1.395       .  A
C319        H327   1.083       .  S
C320        C321   1.405       .  A
C320        H328   1.083       .  S
C321        C322   1.417       .  A
C322        C323   1.398       .  A
C322        C526   1.490       .  S
C323        C324   1.399       .  A
C323        H330   1.085       .  S
C324        C389   1.485       .  S
C331        C332   1.397       .  A
C331        C336   1.415       .  A
C331        C622   1.489       .  S
C332        C333   1.399       .  A
C332        H351   1.085       .  S
C333        C334   1.416       .  A
C333        C773   1.483       .  S
C334        C335   1.419       .  A
C334        C341   1.407       .  A
C335        C336   1.423       .  A
C335        C340   1.422       .  A
C336        C337   1.403       .  A
C337        C338   1.392       .  A
C337        H347   1.082       .  S
C338        C339   1.405       .  A
C338        H348   1.083       .  S
C339        C340   1.419       .  A
C339        C346   1.411       .  A
C340        C343   1.424       .  A
C341        C342   1.398       .  A
C341        H349   1.083       .  S
C342        C343   1.406       .  A
C342        H350   1.083       .  S
C343        C344   1.420       .  A
C344        C345   1.400       .  A
C344        C494   1.495       .  S
C345        C346   1.402       .  A
C345        H352   1.085       .  S
C346        C357   1.486       .  S
C353        C354   1.401       .  A
C353        C358   1.406       .  A
C353        H363   1.083       .  S
C354        C355   1.414       .  A
C354        C359   1.484       .  S
C355        C356   1.407       .  A
C355        C360   1.518       .  S
C356        C357   1.404       .  A
C356        H361   1.083       .  S
C357        C358   1.419       .  A
C358        C362   1.522       .  S
C359        C364   1.417       .  A
C359        C368   1.402       .  A
C360        F376   1.383       .  S
C360        F377   1.382       .  S
C360        F378   1.385       .  S
C362        F373   1.384       .  S
C362        F374   1.380       .  S
C362        F375   1.383       .  S
C364        C365   1.404       .  A
C364        C369   1.521       .  S
C365        C366   1.400       .  A
C365        H370   1.082       .  S
C366        C367   1.419       .  A
C367        C368   1.412       .  A
C367        C371   1.516       .  S
C368        H372   1.083       .  S
C369        F382   1.379       .  S
C369        F383   1.381       .  S
C369        F384   1.382       .  S
C371        F379   1.385       .  S
C371        F380   1.381       .  S
C371        F381   1.383       .  S
C385        C386   1.401       .  A
C385        C390   1.406       .  A
C385        H395   1.083       .  S
C386        C387   1.417       .  A
C386        C391   1.483       .  S
C387        C388   1.408       .  A
C387        C392   1.520       .  S
C388        C389   1.402       .  A
C388        H393   1.083       .  S
C389        C390   1.415       .  A
C390        C394   1.517       .  S
C391        C396   1.414       .  A
C391        C400   1.401       .  A
C392        F408   1.382       .  S
C392        F409   1.382       .  S
C392        F410   1.384       .  S
C394        F405   1.385       .  S
C394        F406   1.382       .  S
C394        F407   1.383       .  S
C396        C397   1.407       .  A
C396        C401   1.518       .  S
C397        C398   1.404       .  A
C397        H402   1.083       .  S
C398        C399   1.422       .  A
C399        C400   1.406       .  A
C399        C403   1.522       .  S
C400        H404   1.083       .  S
C401        F414   1.384       .  S
C401        F415   1.382       .  S
C401        F416   1.382       .  S
C403        F411   1.383       .  S
C403        F412   1.382       .  S
C403        F413   1.385       .  S
C417        C418   1.399   1_656  A
C417        C422   1.406       .  A
C417        H427   1.083       .  S
C418        C419   1.416       .  A
C418        C423   1.488       .  S
C419        C420   1.411       .  A
C419        C424   1.519       .  S
C420        C421   1.407       .  A
C420        H425   1.083       .  S
C421        C422   1.421   1_454  A
C422        C426   1.518       .  S
C423        C428   1.413   1_554  A
C423        C432   1.399   1_455  A
C424        F440   1.382       .  S
C424        F441   1.382       .  S
C424        F442   1.384       .  S
C426        F437   1.382       .  S
C426        F438   1.384       .  S
C426        F439   1.382       .  S
C428        C429   1.410       .  A
C428        C433   1.520       .  S
C429        C430   1.411   1_556  A
C429        H434   1.083       .  S
C430        C431   1.427   1_455  A
C431        C432   1.410       .  A
C431        C435   1.519       .  S
C432        H436   1.083       .  S
C433        F446   1.381       .  S
C433        F447   1.382       .  S
C433        F448   1.382       .  S
C435        F443   1.385       .  S
C435        F444   1.383       .  S
C435        F445   1.383       .  S
C449        C450   1.399   1_655  A
C449        C454   1.405   1_556  A
C449        H459   1.083   1_556  S
C450        C451   1.416       .  A
C450        C455   1.484       .  S
C451        C452   1.409       .  A
C451        C456   1.518       .  S
C452        C453   1.405   1_455  A
C452        H457   1.083       .  S
C453        C454   1.414   1_556  A
C454        C458   1.513       .  S
C455        C460   1.413   1_556  A
C455        C464   1.399   1_455  A
C456        F472   1.382       .  S
C456        F473   1.382       .  S
C456        F474   1.385       .  S
C458        F469   1.382       .  S
C458        F470   1.383       .  S
C458        F471   1.383   1_554  S
C460        C461   1.405       .  A
C460        C465   1.520       .  S
C461        C462   1.409   1_554  A
C461        H466   1.082       .  S
C462        C463   1.429   1_455  A
C463        C464   1.409       .  A
C463        C467   1.520       .  S
C464        H468   1.083       .  S
C465        F478   1.384       .  S
C465        F479   1.382       .  S
C465        F480   1.381       .  S
C467        F475   1.385       .  S
C467        F476   1.383       .  S
C467        F477   1.382       .  S
C481        C482   1.402       .  A
C481        C486   1.414       .  A
C481        H491   1.083       .  S
C482        C483   1.417       .  A
C482        C487   1.495       .  S
C483        C484   1.409       .  A
C483        C488   1.520       .  S
C484        C485   1.408       .  A
C484        H489   1.083       .  S
C485        C486   1.425       .  A
C486        C490   1.519       .  S
C487        C492   1.418       .  A
C487        C496   1.403       .  A
C488        F504   1.382       .  S
C488        F505   1.382       .  S
C488        F506   1.385       .  S
C490        F501   1.382       .  S
C490        F502   1.385       .  S
C490        F503   1.384       .  S
C492        C493   1.413       .  A
C492        C497   1.518       .  S
C493        C494   1.405       .  A
C493        H498   1.083       .  S
C494        C495   1.417       .  A
C495        C496   1.410       .  A
C495        C499   1.517       .  S
C496        H500   1.083       .  S
C497        F510   1.384       .  S
C497        F511   1.383       .  S
C497        F512   1.383       .  S
C499        F507   1.385       .  S
C499        F508   1.382       .  S
C499        F509   1.383       .  S
C513        C514   1.404       .  A
C513        C518   1.416       .  A
C513        H523   1.083       .  S
C514        C515   1.417       .  A
C514        C519   1.495       .  S
C515        C516   1.409       .  A
C515        C520   1.520       .  S
C516        C517   1.405       .  A
C516        H521   1.083       .  S
C517        C518   1.423       .  A
C518        C522   1.517       .  S
C519        C524   1.417       .  A
C519        C528   1.403       .  A
C520        F536   1.382       .  S
C520        F537   1.382       .  S
C520        F538   1.383       .  S
C522        F533   1.384       .  S
C522        F534   1.384       .  S
C522        F535   1.381       .  S
C524        C525   1.412       .  A
C524        C529   1.517       .  S
C525        C526   1.405       .  A
C525        H530   1.083       .  S
C526        C527   1.419       .  A
C527        C528   1.408       .  A
C527        C531   1.518       .  S
C528        H532   1.084       .  S
C529        F542   1.385       .  S
C529        F543   1.383       .  S
C529        F544   1.382       .  S
C531        F539   1.384       .  S
C531        F540   1.381       .  S
C531        F541   1.382       .  S
C545        C546   1.399       .  A
C545        C550   1.407       .  A
C545        H555   1.083       .  S
C546        C547   1.418       .  A
C546        C551   1.478       .  S
C547        C548   1.404       .  A
C547        C552   1.520       .  S
C548        C549   1.405       .  A
C548        H553   1.085       .  S
C549        C550   1.423       .  A
C550        C554   1.517       .  S
C551        C556   1.414       .  A
C551        C560   1.400       .  A
C552        F568   1.383       .  S
C552        F569   1.381       .  S
C552        F570   1.383       .  S
C554        F565   1.385       .  S
C554        F566   1.381       .  S
C554        F567   1.383       .  S
C556        C557   1.406       .  A
C556        C561   1.516       .  S
C557        C558   1.403       .  A
C557        H562   1.083       .  S
C558        C559   1.416       .  A
C559        C560   1.401       .  A
C559        C563   1.518       .  S
C560        H564   1.085       .  S
C561        F574   1.385       .  S
C561        F575   1.383       .  S
C561        F576   1.382       .  S
C563        F571   1.384       .  S
C563        F572   1.382       .  S
C563        F573   1.383       .  S
C577        C578   1.401       .  A
C577        C582   1.409       .  A
C577        H587   1.083       .  S
C578        C579   1.416       .  A
C578        C583   1.492       .  S
C579        C580   1.413       .  A
C579        C584   1.520       .  S
C580        C581   1.409       .  A
C580        H585   1.083       .  S
C581        C582   1.422       .  A
C582        C586   1.520       .  S
C583        C588   1.418       .  A
C583        C592   1.403       .  A
C584        F600   1.383       .  S
C584        F601   1.381       .  S
C584        F602   1.384       .  S
C586        F597   1.382       .  S
C586        F598   1.385       .  S
C586        F599   1.384       .  S
C588        C589   1.410       .  A
C588        C593   1.519       .  S
C589        C590   1.403       .  A
C589        H594   1.083       .  S
C590        C591   1.420       .  A
C591        C592   1.408       .  A
C591        C595   1.520       .  S
C592        H596   1.085       .  S
C593        F606   1.385       .  S
C593        F607   1.382       .  S
C593        F608   1.381       .  S
C595        F603   1.383       .  S
C595        F604   1.382       .  S
C595        F605   1.383       .  S
C609        C610   1.401       .  A
C609        C614   1.407       .  A
C609        H619   1.083       .  S
C610        C611   1.416       .  A
C610        C615   1.489       .  S
C611        C612   1.412       .  A
C611        C616   1.518       .  S
C612        C613   1.405       .  A
C612        H617   1.083       .  S
C613        C614   1.420       .  A
C614        C618   1.518       .  S
C615        C620   1.418       .  A
C615        C624   1.401       .  A
C616        F632   1.383       .  S
C616        F633   1.382       .  S
C616        F634   1.384       .  S
C618        F629   1.385       .  S
C618        F630   1.382       .  S
C618        F631   1.383       .  S
C620        C621   1.411       .  A
C620        C625   1.519       .  S
C621        C622   1.405       .  A
C621        H626   1.083       .  S
C622        C623   1.419       .  A
C623        C624   1.405       .  A
C623        C627   1.518       .  S
C624        H628   1.084       .  S
C625        F638   1.385       .  S
C625        F639   1.382       .  S
C625        F640   1.382       .  S
C627        F635   1.383       .  S
C627        F636   1.382       .  S
C627        F637   1.384       .  S
C641        C642   1.399       .  A
C641        C646   1.412       .  A
C641        H651   1.083       .  S
C642        C643   1.415       .  A
C642        C647   1.491       .  S
C643        C644   1.409       .  A
C643        C648   1.522       .  S
C644        C645   1.410       .  A
C644        H649   1.081       .  S
C645        C646   1.430       .  A
C646        C650   1.519       .  S
C647        C652   1.417       .  A
C647        C656   1.403       .  A
C648        F664   1.381       .  S
C648        F665   1.384       .  S
C648        F666   1.380       .  S
C650        F661   1.383       .  S
C650        F662   1.384       .  S
C650        F663   1.383       .  S
C652        C653   1.408       .  A
C652        C657   1.520       .  S
C653        C654   1.404       .  A
C653        H658   1.083       .  S
C654        C655   1.418       .  A
C655        C656   1.409       .  A
C655        C659   1.520       .  S
C656        H660   1.083       .  S
C657        F670   1.384       .  S
C657        F671   1.382       .  S
C657        F672   1.383       .  S
C659        F667   1.385       .  S
C659        F668   1.381       .  S
C659        F669   1.383       .  S
C673        C674   1.400       .  A
C673        C678   1.409       .  A
C673        H683   1.083       .  S
C674        C675   1.417       .  A
C674        C679   1.488       .  S
C675        C676   1.408       .  A
C675        C680   1.521       .  S
C676        C677   1.407       .  A
C676        H681   1.083       .  S
C677        C678   1.423       .  A
C678        C682   1.517       .  S
C679        C684   1.418       .  A
C679        C688   1.403       .  A
C680        F696   1.382       .  S
C680        F697   1.383       .  S
C680        F698   1.385       .  S
C682        F693   1.385       .  S
C682        F694   1.384       .  S
C682        F695   1.381       .  S
C684        C685   1.406       .  A
C684        C689   1.519       .  S
C685        C686   1.400       .  A
C685        H690   1.083       .  S
C686        C687   1.415       .  A
C687        C688   1.408       .  A
C687        C691   1.518       .  S
C688        H692   1.083       .  S
C689        F702   1.385       .  S
C689        F703   1.382       .  S
C689        F704   1.383       .  S
C691        F699   1.382       .  S
C691        F700   1.383       .  S
C691        F701   1.385       .  S
C705        C706   1.399       .  A
C705        C710   1.406       .  A
C705        H715   1.083       .  S
C706        C707   1.416       .  A
C706        C711   1.485       .  S
C707        C708   1.408       .  A
C707        C712   1.520       .  S
C708        C709   1.407       .  A
C708        H713   1.083       .  S
C709        C710   1.422       .  A
C710        C714   1.519       .  S
C711        C716   1.415       .  A
C711        C720   1.399       .  A
C712        F728   1.382       .  S
C712        F729   1.382       .  S
C712        F730   1.385       .  S
C714        F725   1.382       .  S
C714        F726   1.385       .  S
C714        F727   1.383       .  S
C716        C717   1.408       .  A
C716        C721   1.519       .  S
C717        C718   1.407       .  A
C717        H722   1.083       .  S
C718        C719   1.422       .  A
C719        C720   1.406       .  A
C719        C723   1.518       .  S
C720        H724   1.083       .  S
C721        F734   1.385       .  S
C721        F735   1.382       .  S
C721        F736   1.382       .  S
C723        F731   1.381       .  S
C723        F732   1.383       .  S
C723        F733   1.385       .  S
C737        C738   1.399       .  A
C737        C742   1.407       .  A
C737        H747   1.083       .  S
C738        C739   1.416       .  A
C738        C743   1.485       .  S
C739        C740   1.410       .  A
C739        C744   1.520       .  S
C740        C741   1.406       .  A
C740        H745   1.083       .  S
C741        C742   1.421       .  A
C742        C746   1.518       .  S
C743        C748   1.414       .  A
C743        C752   1.398       .  A
C744        F760   1.383       .  S
C744        F761   1.382       .  S
C744        F762   1.384       .  S
C746        F757   1.385       .  S
C746        F758   1.382       .  S
C746        F759   1.384       .  S
C748        C749   1.409       .  A
C748        C753   1.519       .  S
C749        C750   1.409       .  A
C749        H754   1.083       .  S
C750        C751   1.419       .  A
C751        C752   1.407       .  A
C751        C755   1.514       .  S
C752        H756   1.083       .  S
C753        F766   1.384       .  S
C753        F767   1.383       .  S
C753        F768   1.382       .  S
C755        F763   1.383       .  S
C755        F764   1.383       .  S
C755        F765   1.383       .  S
C769        C770   1.404       .  A
C769        C774   1.408       .  A
C769        H779   1.084       .  S
C770        C771   1.418       .  A
C770        C775   1.489       .  S
C771        C772   1.404       .  A
C771        C776   1.520       .  S
C772        C773   1.402       .  A
C772        H777   1.083       .  S
C773        C774   1.419       .  A
C774        C778   1.518       .  S
C775        C780   1.415       .  A
C775        C784   1.401       .  A
C776        F792   1.382       .  S
C776        F793   1.383       .  S
C776        F794   1.385       .  S
C778        F789   1.384       .  S
C778        F790   1.383       .  S
C778        F791   1.381       .  S
C780        C781   1.402       .  A
C780        C785   1.522       .  S
C781        C782   1.409       .  A
C781        H786   1.079       .  S
C782        C783   1.428       .  A
C783        C784   1.413       .  A
C783        C787   1.519       .  S
C784        H788   1.083       .  S
C785        F798   1.384       .  S
C785        F799   1.382       .  S
C785        F800   1.383       .  S
C787        F795   1.385       .  S
C787        F796   1.383       .  S
C787        F797   1.382       .  S
C801        C802   1.402       .  A
C801        C806   1.405       .  A
C801        H811   1.084       .  S
C802        C803   1.417       .  A
C802        C807   1.487       .  S
C803        C804   1.408       .  A
C803        C808   1.519       .  S
C804        C805   1.402       .  A
C804        H809   1.083       .  S
C805        C806   1.418       .  A
C806        C810   1.519       .  S
C807        C812   1.417       .  A
C807        C816   1.405       .  A
C808        F824   1.382       .  S
C808        F825   1.382       .  S
C808        F826   1.384       .  S
C810        F821   1.384       .  S
C810        F822   1.383       .  S
C810        F823   1.382       .  S
C812        C813   1.407       .  A
C812        C817   1.518       .  S
C813        C814   1.401       .  A
C813        H818   1.083       .  S
C814        C815   1.415       .  A
C815        C816   1.407       .  A
C815        C819   1.519       .  S
C816        H820   1.083       .  S
C817        F830   1.385       .  S
C817        F831   1.382       .  S
C817        F832   1.382       .  S
C819        F827   1.382       .  S
C819        F828   1.384       .  S
C819        F829   1.384       .  S
C833        C834   1.405       .  A
C833        C838   1.411       .  A
C833        H843   1.083       .  S
C834        C835   1.417       .  A
C834        C839   1.488       .  S
C835        C836   1.404       .  A
C835        C840   1.520       .  S
C836        C837   1.400       .  A
C836        H841   1.083       .  S
C837        C838   1.417       .  A
C838        C842   1.520       .  S
C839        C844   1.419       .  A
C839        C848   1.403       .  A
C840        F856   1.382       .  S
C840        F857   1.383       .  S
C840        F858   1.384       .  S
C842        F853   1.384       .  S
C842        F854   1.382       .  S
C842        F855   1.383       .  S
C844        C845   1.408       .  A
C844        C849   1.520       .  S
C845        C846   1.402       .  A
C845        H850   1.083       .  S
C846        C847   1.415       .  A
C847        C848   1.408       .  A
C847        C851   1.517       .  S
C848        H852   1.083       .  S
C849        F862   1.385       .  S
C849        F863   1.382       .  S
C849        F864   1.383       .  S
C851        F859   1.384       .  S
C851        F860   1.381       .  S
C851        F861   1.384       .  S
C865        C866   1.404       .  A
C865        C870   1.409       .  A
C865        H875   1.083       .  S
C866        C867   1.420       .  A
C866        C871   1.487       .  S
C867        C868   1.405       .  A
C867        C872   1.521       .  S
C868        C869   1.398       .  A
C868        H873   1.080       .  S
C869        C870   1.414       .  A
C870        C874   1.517       .  S
C871        C876   1.415       .  A
C871        C880   1.401       .  A
C872        F888   1.381       .  S
C872        F889   1.383       .  S
C872        F890   1.384       .  S
C874        F885   1.383       .  S
C874        F886   1.384       .  S
C874        F887   1.383       .  S
C876        C877   1.407       .  A
C876        C881   1.519       .  S
C877        C878   1.405       .  A
C877        H882   1.083       .  S
C878        C879   1.420       .  A
C879        C880   1.406       .  A
C879        C883   1.518       .  S
C880        H884   1.085       .  S
C881        F894   1.385       .  S
C881        F895   1.382       .  S
C881        F896   1.383       .  S
C883        F891   1.383       .  S
C883        F892   1.384       .  S
C883        F893   1.379       .  S
C897        C898   1.398       .  A
C897        C902   1.407       .  A
C897        H907   1.083       .  S
C898        C899   1.416       .  A
C898        C903   1.480       .  S
C899        C900   1.405       .  A
C899        C904   1.521       .  S
C900        C901   1.405       .  A
C900        H905   1.083       .  S
C901        C902   1.423       .  A
C902        C906   1.519       .  S
C903        C908   1.416       .  A
C903        C912   1.400       .  A
C904        F920   1.382       .  S
C904        F921   1.382       .  S
C904        F922   1.384       .  S
C906        F917   1.382       .  S
C906        F918   1.384       .  S
C906        F919   1.384       .  S
C908        C909   1.408       .  A
C908        C913   1.519       .  S
C909        C910   1.403       .  A
C909        H914   1.083       .  S
C910        C911   1.416       .  A
C911        C912   1.403       .  A
C911        C915   1.518       .  S
C912        H916   1.083       .  S
C913        F926   1.385       .  S
C913        F927   1.382       .  S
C913        F928   1.382       .  S
C915        F923   1.385       .  S
C915        F924   1.382       .  S
C915        F925   1.383       .  S
C929        C930   1.403       .  A
C929        C934   1.408       .  A
C929        H939   1.083       .  S
C930        C931   1.418       .  A
C930        C935   1.484       .  S
C931        C932   1.405       .  A
C931        C936   1.521       .  S
C932        C933   1.400       .  A
C932        H937   1.081       .  S
C933        C934   1.415       .  A
C934        C938   1.516       .  S
C935        C940   1.416       .  A
C935        C944   1.403       .  A
C936        F952   1.381       .  S
C936        F953   1.383       .  S
C936        F954   1.384       .  S
C938        F949   1.385       .  S
C938        F950   1.382       .  S
C938        F951   1.382       .  S
C940        C941   1.404       .  A
C940        C945   1.521       .  S
C941        C942   1.403       .  A
C941        H946   1.083       .  S
C942        C943   1.419       .  A
C943        C944   1.405       .  A
C943        C947   1.520       .  S
C944        H948   1.085       .  S
C945        F958   1.384       .  S
C945        F959   1.381       .  S
C945        F960   1.383       .  S
C947        F955   1.383       .  S
C947        F956   1.381       .  S
C947        F957   1.384       .  S
C961        C962   1.402       .  A
C961        C966   1.408       .  A
C961        H971   1.083       .  S
C962        C963   1.415       .  A
C962        C967   1.489       .  S
C963        C964   1.409       .  A
C963        C968   1.520       .  S
C964        C965   1.408       .  A
C964        H969   1.083       .  S
C965        C966   1.422       .  A
C966        C970   1.520       .  S
C967        C972   1.419       .  A
C967        C976   1.404       .  A
C968        F984   1.381       .  S
C968        F985   1.382       .  S
C968        F986   1.385       .  S
C970        F981   1.382       .  S
C970        F982   1.385       .  S
C970        F983   1.383       .  S
C972        C973   1.408       .  A
C972        C977   1.519       .  S
C973        C974   1.401       .  A
C973        H978   1.083       .  S
C974        C975   1.413       .  A
C975        C976   1.407       .  A
C975        C979   1.517       .  S
C976        H980   1.083       .  S
C977        F990   1.385       .  S
C977        F991   1.382       .  S
C977        F992   1.382       .  S
C979        F987   1.382       .  S
C979        F988   1.383       .  S
C979        F989   1.384       .  S
