geometry optimzed in LAMMPS
_audit_creation_date              2020-11-30 
_audit_creation_method            'lammps2cif' 
_symmetry_space_group_name_H-M    'P1' 
_symmetry_Int_Tables_number       1 
_symmetry_cell_setting            triclinic 
loop_ 
_symmetry_equiv_pos_as_xyz 
  x,y,z 
_cell_length_a                    59.86058912 
_cell_length_b                    59.82189214632789 
_cell_length_c                    59.92748893292104 
_cell_angle_alpha                 89.99690456610155 
_cell_angle_beta                  89.97557398481707 
_cell_angle_gamma                 89.98898081460368 
loop_ 
_atom_site_label 
_atom_site_type_symbol 
_atom_site_fract_x 
_atom_site_fract_y 
_atom_site_fract_z 
_atom_site_charge 
C1          C  0.76630608  0.75508706  0.73536172     0.80300
N2          N  0.74904800  0.76858403  0.74129731    -0.78000
C3          C  0.73672146  0.76436364  0.75990801     0.82700
N4          N  0.74193547  0.74642222  0.77276415    -0.78000
C5          C  0.75905320  0.73261605  0.76709881     0.82800
N6          N  0.77113917  0.73716733  0.74848569    -0.79700
C7          C  0.23744606  0.70404715  0.21334758     0.80300
N8          N  0.25001813  0.70017421  0.23182929    -0.78000
C9          C  0.26684465  0.71418442  0.23765993     0.82700
N10         N  0.27123862  0.73219004  0.22451862    -0.78000
C11         C  0.25896780  0.73643020  0.20594656     0.82800
N12         N  0.24210447  0.72217033  0.20051689    -0.79700
C13         C  0.70828385  0.76249532  0.24217949     0.80300
N14         N  0.70276966  0.74599334  0.22763440    -0.78000
C15         C  0.71650427  0.74099664  0.21028475     0.82700
N16         N  0.73576674  0.75277348  0.20758269    -0.78000
C17         C  0.74153742  0.76913116  0.22221830     0.82800
N18         N  0.72770103  0.77382411  0.23951578    -0.79700
C19         C  0.26686096  0.25615751  0.23379148     0.80300
N20         N  0.26996131  0.23888414  0.24822782    -0.78000
C21         C  0.25571105  0.23549306  0.26561487     0.82700
N22         N  0.23817758  0.24966166  0.26835139    -0.78000
C23         C  0.23511930  0.26712524  0.25420974     0.82800
N24         N  0.24936695  0.27019012  0.23691957    -0.79700
C25         C  0.71512172  0.23794327  0.26759131     0.80300
N26         N  0.70261924  0.23602648  0.24876114    -0.78000
C27         C  0.70633136  0.21934769  0.23384424     0.82700
N28         N  0.72319644  0.20468093  0.23746641    -0.78000
C29         C  0.73595409  0.20623169  0.25612488     0.82800
N30         N  0.73191089  0.22289826  0.27108477    -0.79700
C31         C  0.74216690  0.20360164  0.71371146     0.80300
N32         N  0.75726632  0.20120681  0.73057341    -0.78000
C33         C  0.77358416  0.21672227  0.73369619     0.82700
N34         N  0.77490800  0.23455292  0.71980764    -0.78000
C35         C  0.75990208  0.23719577  0.70315793     0.82800
N36         N  0.74337825  0.22193440  0.70035231    -0.79700
C37         C  0.21702405  0.74383975  0.77019860     0.80300
N38         N  0.23505129  0.73045296  0.77339982    -0.78000
C39         C  0.23956018  0.71326391  0.75925203     0.82700
N40         N  0.22611249  0.70999261  0.74124454    -0.78000
C41         C  0.20823581  0.72351345  0.73763229     0.82800
N42         N  0.20378500  0.74028630  0.75218042    -0.79700
O43         O  0.02995420  0.02701316  0.98260822    -0.88300
C44         C  0.07107588  0.02283109  0.03645036     0.87800
Mg45       Mg  0.00626215  0.05355458  0.97915293     1.58100
O46         O  0.02660676  0.98441864  0.03727571    -0.88000
O47         O  0.02974471  0.99044781  0.98477492    -0.75300
C48         C  0.95712935  0.06177103  0.07851174     0.92800
O49         O  0.05129219  0.06670578  0.01146183    -0.75100
O50         O  0.96101555  0.07396024  0.06153258    -0.82600
Mg51       Mg  0.06363122  0.03679187  0.99070022     1.58000
C52         C  0.98957665  0.97468497  0.09416925     0.92700
O53         O  0.07999283  0.00891149  0.96910768    -0.80900
H54         H  0.00958661  0.95971146  0.02261520    -0.06300
C55         C  0.01770419  0.04113701  0.07305478     0.87700
O56         O  0.97795722  0.03141984  0.99266234    -0.75400
O57         O  0.06179502  0.01567093  0.01945617    -0.88200
O58         O  0.00988871  0.97336219  0.08771938    -0.81000
C59         C  0.07842657  0.96385075  0.06111928     0.92900
C60         C  0.08662697  0.98881734  0.97201235     0.92700
Mg61       Mg  0.97828636  0.01343809  0.05761093     1.58000
O62         O  0.96370392  0.04149667  0.07953920    -0.80900
O63         O  0.98998038  0.98347712  0.03675558    -0.75200
O64         O  0.07728260  0.96890962  0.04051175    -0.81000
O65         O  0.06597346  0.06069199  0.96133730    -0.82700
O66         O  0.96373296  0.08314597  0.00798215    -0.81000
C67         C  0.00891426  0.97506341  0.03211097     0.87100
O68         O  0.97915869  0.03488788  0.02908102    -0.88200
O69         O  0.01204678  0.02265375  0.06572005    -0.88300
O70         O  0.01153626  0.05928219  0.06388646    -0.75300
Mg71       Mg  0.05308203  0.98136877  0.01379351     1.58000
O72         O  0.06288915  0.96915742  0.07468797    -0.82700
H73         H  0.01335767  0.00792915  0.96082110    -0.06400
O74         O  0.01470584  0.06518432  0.01185269    -0.88000
H75         H  0.03167889  0.09008239  0.02623894    -0.06300
H76         H  0.95556057  0.01701012  0.01363366    -0.06400
C77         C  0.03235747  0.07476268  0.01670824     0.87100
C78         C  0.02414297  0.00858677  0.97527466     0.87700
C79         C  0.97010972  0.02759207  0.01200484     0.87800
H80         H  0.02872603  0.04187165  0.08733593    -0.06400
O81         O  0.06372295  0.01847575  0.05586372    -0.75400
Mg82       Mg  0.98798982  0.06920545  0.03517035     1.58000
H83         H  0.08544902  0.03362272  0.03471867    -0.06400
C84         C  0.05268797  0.07659316  0.95660268     0.92700
O85         O  0.98079036  0.08099672  0.97497816    -0.82700
C86         C  0.96508006  0.08825473  0.98731540     0.92800
O87         O  0.08054139  0.97742656  0.98879441    -0.82700
Mg88       Mg  0.03587560  0.99609920  0.06999664     1.58200
O89         O  0.03244100  0.07647711  0.96320577    -0.81000
O90         O  0.97651397  0.98978670  0.08690315    -0.82700
C91         C  0.09373420  0.26886191  0.91379272     0.80300
N92         N  0.08806076  0.24721715  0.91797060    -0.78000
C93         C  0.09781130  0.23013741  0.90658040     0.82700
N94         N  0.11336643  0.23503547  0.89097848    -0.78000
C95         C  0.11894363  0.25643252  0.88613369     0.82800
N96         N  0.10907598  0.27343983  0.89758253    -0.79700
C97         C  0.90726217  0.09476809  0.26997256     0.80300
N98         N  0.88663124  0.10343009  0.27430644    -0.78000
C99         C  0.87331705  0.11038753  0.25725242     0.82700
N100        N  0.88082605  0.10895608  0.23594325    -0.78000
C101        C  0.90139859  0.10073080  0.23132914     0.82800
N102        N  0.91434829  0.09334714  0.24844925    -0.79700
C103        C  0.26934528  0.90520572  0.08901152     0.80300
N104        N  0.27382743  0.88691600  0.10175140    -0.78000
C105        C  0.25687631  0.87536845  0.11152818     0.82700
N106        N  0.23544525  0.88218984  0.10841577    -0.78000
C107        C  0.23061284  0.89998568  0.09524265     0.82800
N108        N  0.24775463  0.91143509  0.08567724    -0.79700
O109        O  0.94807728  0.47793789  0.44681370    -0.88300
C110        C  0.95701241  0.53191177  0.40709384     0.87800
Mg111      Mg  0.92025534  0.47624680  0.46910858     1.58100
O112        O  0.99452090  0.53035273  0.45224267    -0.88000
O113        O  0.98476662  0.47830754  0.44877869    -0.75300
C114        C  0.91782244  0.57541341  0.51919909     0.92800
O115        O  0.91121327  0.51003899  0.42421253    -0.75100
O116        O  0.90477175  0.55910791  0.51522244    -0.82600
Mg117      Mg  0.94004305  0.48724723  0.41300211     1.58000
C118        C  0.00532761  0.58716826  0.48996388     0.92700
O119        O  0.96690833  0.46388024  0.39811048    -0.80900
H120        H  0.01795377  0.51411341  0.46962401    -0.06300
C121        C  0.94000021  0.56950353  0.46005666     0.87700
O122        O  0.94217842  0.48754883  0.49853319    -0.75400
O123        O  0.96287127  0.51439325  0.41633887    -0.88200
O124        O  0.00767303  0.58091352  0.46969000    -0.81000
C125        C  0.01555158  0.55391261  0.40049621     0.92900
C126        C  0.98731722  0.46515358  0.39216089     0.92700
Mg127      Mg  0.96518497  0.55135574  0.49973253     1.58000
O128        O  0.93825795  0.57498047  0.51323159    -0.80900
O129        O  0.99430518  0.52897542  0.48881688    -0.75200
O130        O  0.00978344  0.53341309  0.40160810    -0.81000
O131        O  0.91414186  0.45971477  0.40880429    -0.82700
O132        O  0.89130178  0.50673387  0.51073485    -0.81000
C133        C  0.00308285  0.52436846  0.47006296     0.87100
O134        O  0.94193507  0.52419017  0.49765460    -0.88200
O135        O  0.95762468  0.56056287  0.46604803    -0.88300
O136        O  0.92105359  0.56155210  0.46534632    -0.75300
Mg137      Mg  0.99650818  0.50674906  0.42572822     1.58000
O138        O  0.01194692  0.56726713  0.41666237    -0.82700
H139        H  0.96530341  0.45531510  0.46435066    -0.06400
O140        O  0.91169929  0.50998243  0.46074945    -0.88000
H141        H  0.88843165  0.52636768  0.44328115    -0.06300
H142        H  0.95759285  0.50699701  0.52162111    -0.06400
C143        C  0.90302391  0.51572727  0.44292888     0.87100
C144        C  0.96587729  0.46974443  0.45350062     0.87700
C145        C  0.94744814  0.50643636  0.50670979     0.87800
H146        H  0.94073686  0.58411946  0.44947757    -0.06400
O147        O  0.96233328  0.55097398  0.41475134    -0.75400
Mg148      Mg  0.90845070  0.53307386  0.48779599     1.58000
H149        H  0.94650691  0.53098560  0.39244078    -0.06400
C150        C  0.89750415  0.45586184  0.42144719     0.92700
O151        O  0.89128886  0.47404142  0.49296670    -0.82700
C152        C  0.88424181  0.48671578  0.50848847     0.92800
O153        O  0.99988449  0.48103702  0.39855262    -0.82700
Mg154      Mg  0.98475776  0.56377537  0.44311907     1.58200
O155        O  0.89731687  0.46226771  0.44173836    -0.81000
O156        O  0.98995581  0.57942932  0.50239650    -0.82700
C157        C  0.70596129  0.40900799  0.38233515     0.80300
N158        N  0.72768028  0.41419794  0.38652954    -0.78000
C159        C  0.74462136  0.40127766  0.37869037     0.82700
N160        N  0.73973727  0.38300187  0.36630501    -0.78000
C161        C  0.71824268  0.37719326  0.36211832     0.82800
N162        N  0.70137402  0.39024474  0.37014370    -0.79700
C163        C  0.06283322  0.59701522  0.20942544     0.80300
N164        N  0.08224904  0.60802562  0.20509849    -0.78000
C165        C  0.09541104  0.61553396  0.22199851     0.82700
N166        N  0.08889175  0.61189062  0.24346298    -0.78000
C167        C  0.06968277  0.60070077  0.24805236     0.82800
N168        N  0.05675809  0.59334540  0.23094596    -0.79700
C169        C  0.87774646  0.76860495  0.56312495     0.80300
N170        N  0.88293129  0.74708527  0.55785335    -0.78000
C171        C  0.87517788  0.72981249  0.57041175     0.82700
N172        N  0.86185668  0.73422701  0.58816276    -0.78000
C173        C  0.85684848  0.75557120  0.59393953     0.82800
N174        N  0.86491564  0.77278178  0.58145440    -0.79700
O175        O  0.00298257  0.91691211  0.44482107    -0.88300
C176        C  0.97782898  0.97980820  0.44101559     0.87800
Mg177      Mg  0.01557618  0.90297049  0.47471762     1.58100
O178        O  0.03138902  0.97349017  0.41793780    -0.88000
O179        O  0.01533352  0.92362496  0.41111955    -0.75300
C180        C  0.08097698  0.98231968  0.51756090     0.92800
O181        O  0.97668587  0.94397606  0.48241740    -0.75100
O182        O  0.07034910  0.96498724  0.52396980    -0.82600
Mg183      Mg  0.97038195  0.93160165  0.44649299     1.58000
C184        C  0.08140450  0.01840168  0.43065641     0.92700
O185        O  0.96134188  0.91863630  0.41105603    -0.80900
H186        H  0.05200916  0.95902297  0.39600481    -0.06300
C187        C  0.02920829  0.99721895  0.48132751     0.87700
O188        O  0.05155563  0.91163343  0.46451934    -0.75400
O189        O  0.98482352  0.96190916  0.43331221    -0.88200
O190        O  0.06200500  0.01745848  0.42182382    -0.81000
C191        C  0.99648678  0.01298766  0.38798655     0.92900
C192        C  0.96244796  0.92573099  0.39098188     0.92700
Mg193      Mg  0.07095398  0.97636433  0.46252223     1.58000
O194        O  0.08024592  0.98907097  0.49741494    -0.80900
O195        O  0.06567539  0.96412409  0.42657082    -0.75200
O196        O  0.99080146  0.99251406  0.38930115    -0.81000
O197        O  0.95430723  0.90007563  0.46185222    -0.82700
O198        O  0.05291703  0.91289080  0.51901630    -0.81000
C199        C  0.04972196  0.96555115  0.41267273     0.87100
O200        O  0.05716678  0.94606482  0.47550465    -0.88200
O201        O  0.03862019  0.99169104  0.46374613    -0.88300
O202        O  0.02771025  0.98400004  0.49796047    -0.75300
Mg203      Mg  0.00301816  0.95882733  0.40250043     1.58000
O204        O  0.01185767  0.02089738  0.40042354    -0.82700
H205        H  0.01938173  0.89395235  0.42696852    -0.06400
O206        O  0.01102825  0.93442080  0.49126782    -0.88000
H207        H  0.99053137  0.94964119  0.51282767    -0.06300
H208        H  0.08122231  0.92773693  0.46132031    -0.06400
C209        C  0.99273954  0.94271563  0.49629704     0.87100
C210        C  0.01252625  0.91064812  0.42763278     0.87700
C211        C  0.06414569  0.92851194  0.46715231     0.87800
H212        H  0.02171107  0.01361452  0.48246408    -0.06400
O213        O  0.99033311  0.99692369  0.44287541    -0.75400
Mg214      Mg  0.04025381  0.94840536  0.50692535     1.58000
H215        H  0.96077930  0.98076425  0.44682062    -0.06400
C216        C  0.96118872  0.88830967  0.47820358     0.92700
O217        O  0.02933168  0.88742209  0.50546889    -0.82700
C218        C  0.04515418  0.89292803  0.51839959     0.92800
O219        O  0.97389730  0.94274396  0.38553462    -0.82700
Mg220      Mg  0.02645125  0.00571986  0.43272440     1.58200
O221        O  0.98121655  0.88996777  0.48516783    -0.81000
O222        O  0.08641495  0.00753024  0.44817106    -0.82700
C223        C  0.09497979  0.70505041  0.56873259     0.80300
N224        N  0.09094981  0.72635862  0.56176787    -0.78000
C225        C  0.09843480  0.74413620  0.57379092     0.82700
N226        N  0.10971360  0.74047268  0.59310780    -0.78000
C227        C  0.11431864  0.71932195  0.59991617     0.82800
N228        N  0.10696361  0.70172017  0.58768704    -0.79700
C229        C  0.26893343  0.06754045  0.38215624     0.80300
N230        N  0.24766481  0.06116850  0.38693537    -0.78000
C231        C  0.22999865  0.07147383  0.37716087     0.82700
N232        N  0.23372285  0.08860407  0.36283142    -0.78000
C233        C  0.25483357  0.09519392  0.35785364     0.82800
N234        N  0.27245786  0.08478464  0.36775204    -0.79700
C235        C  0.91979418  0.87062994  0.20623312     0.80300
N236        N  0.90049901  0.85981226  0.20079380    -0.78000
C237        C  0.88704888  0.85153436  0.21716011     0.82700
N238        N  0.89263672  0.85455436  0.23888416    -0.78000
C239        C  0.91160177  0.86543640  0.24457937     0.94000
N240        N  0.92505297  0.87334260  0.22814434    -0.79700
O241        O  0.47966427  0.44697561  0.94880523    -0.88300
C242        C  0.53575929  0.40921934  0.95702792     0.87800
Mg243      Mg  0.47631562  0.47010648  0.92164040     1.58100
O244        O  0.53243412  0.45480989  0.99429831    -0.88000
O245        O  0.48031395  0.44811637  0.98541178    -0.75300
C246        C  0.57511986  0.52205333  0.91743074     0.92800
O247        O  0.51182964  0.42642310  0.91123522    -0.75100
O248        O  0.55915367  0.51824615  0.90387077    -0.82600
Mg249      Mg  0.49037243  0.41362854  0.94034774     1.58000
C250        C  0.58800249  0.49524611  0.00379987     0.92700
O251        O  0.46830996  0.39635843  0.96763087    -0.80900
H252        H  0.51560465  0.47156018  0.01777737    -0.06300
C253        C  0.57006577  0.46328862  0.93899294     0.87700
O254        O  0.48741397  0.49937011  0.94367824    -0.75400
O255        O  0.51795463  0.41791799  0.96282728    -0.88200
O256        O  0.58285315  0.47467208  0.00620101    -0.81000
C257        C  0.55859998  0.40542112  0.01680549     0.92900
C258        C  0.47156134  0.38987563  0.98770044     0.92700
Mg259      Mg  0.55106012  0.50267467  0.96453610     1.58000
O260        O  0.57370801  0.51614495  0.93772627    -0.80900
O261        O  0.52941103  0.49131618  0.99396085    -0.75200
O262        O  0.53826587  0.40482048  0.01060087    -0.81000
O263        O  0.46263143  0.40895440  0.91471261    -0.82700
O264        O  0.50520386  0.51291592  0.89248289    -0.81000
C265        C  0.52570443  0.47239522  0.00283764     0.87100
O266        O  0.52398734  0.49967357  0.94183140    -0.88200
O267        O  0.56139223  0.46926185  0.95676672    -0.88300
O268        O  0.56169207  0.46832647  0.92016940    -0.75300
Mg269      Mg  0.51037591  0.42690227  0.99656080     1.58000
O270        O  0.57134032  0.42175950  0.01193184    -0.82700
H271        H  0.45612266  0.46261197  0.96660872    -0.06400
O272        O  0.51004411  0.46301471  0.91153988    -0.88000
H273        H  0.52650652  0.44613261  0.88790734    -0.06300
H274        H  0.50672766  0.52308230  0.95826430    -0.06400
C275        C  0.51630268  0.44537525  0.90278916     0.87100
C276        C  0.47124613  0.45272928  0.96678048     0.87700
C277        C  0.50620843  0.50819233  0.94805301     0.87800
H278        H  0.58483387  0.45289566  0.93950309    -0.06400
O279        O  0.55450594  0.41761463  0.96233599    -0.75400
Mg280      Mg  0.53272759  0.49044548  0.90811290     1.58000
H281        H  0.53536421  0.39439048  0.94673578    -0.06400
C282        C  0.45689370  0.42199385  0.89888645     0.92700
O283        O  0.47227260  0.49545761  0.89382895    -0.82700
C284        C  0.48459113  0.51143554  0.88705156     0.92800
O285        O  0.48725367  0.39763283  0.99966479    -0.82700
Mg286      Mg  0.56623742  0.44705561  0.98412747     1.58200
O287        O  0.46216130  0.44265592  0.89875885    -0.81000
O288        O  0.57926670  0.50697090  0.98846086    -0.82700
C289        C  0.41055813  0.37813324  0.70764276     0.80300
N290        N  0.39243021  0.36478840  0.70414075    -0.78000
C291        C  0.38037403  0.35699623  0.72176319     0.82700
N292        N  0.38662845  0.36250027  0.74281897    -0.78000
C293        C  0.40438733  0.37602659  0.74658902     0.82800
N294        N  0.41624481  0.38371598  0.72888334    -0.79700
C295        C  0.59541079  0.21355170  0.06158774     0.80300
N296        N  0.60842007  0.20889991  0.07964905    -0.78000
C297        C  0.61819212  0.22590815  0.09116357     0.82700
N298        N  0.61526350  0.24731360  0.08422937    -0.78000
C299        C  0.60254285  0.25212944  0.06612666     0.82800
N300        N  0.59240945  0.23510621  0.05514432    -0.79700
C301        C  0.77030191  0.56083861  0.87896749     0.80300
N302        N  0.74889306  0.55636784  0.88508337    -0.78000
C303        C  0.73182266  0.56978829  0.87850887     0.82700
N304        N  0.73629895  0.58784928  0.86561908    -0.78000
C305        C  0.75757609  0.59285988  0.85956822     0.82800
N306        N  0.77448978  0.57924792  0.86623065    -0.79700
O307        O  0.94272674  0.47390666  0.06178080    -0.88300
C308        C  0.94494672  0.49623299  0.99771405     0.87800
Mg309      Mg  0.97057232  0.45814830  0.07725040     1.58100
O310        O  0.91564209  0.44563040  0.00492109    -0.88000
O311        O  0.90813963  0.46539301  0.05372011    -0.75300
C312        C  0.00971088  0.38615932  0.00143589     0.92800
O313        O  0.98453837  0.49446364  0.03573699    -0.75100
O314        O  0.01717358  0.39662297  0.01841132    -0.82600
Mg315      Mg  0.94898603  0.50532496  0.04569288     1.58000
C316        C  0.92717717  0.39262931  0.96162594     0.92700
O317        O  0.91438660  0.52025862  0.05570228    -0.80900
H318        H  0.89099224  0.42830241  0.01933252    -0.06300
C319        C  0.97995915  0.44032448  0.98406825     0.87700
O320        O  0.95666635  0.42337305  0.06933715    -0.75400
O321        O  0.93573862  0.49097766  0.01543268    -0.88200
O322        O  0.91986618  0.41267812  0.96067927    -0.81000
C323        C  0.89162971  0.48055859  0.96260905     0.92900
C324        C  0.89499854  0.52142851  0.04686296     0.92700
Mg325      Mg  0.95585671  0.40174127  0.00618257     1.58000
O326        O  0.98959019  0.38834439  0.99511051    -0.80900
O327        O  0.92017409  0.41125714  0.01653093    -0.75200
O328        O  0.89269891  0.48795228  0.98252855    -0.81000
O329        O  0.96438143  0.52044603  0.07728781    -0.82700
O330        O  0.01085592  0.41598732  0.06903111    -0.81000
C331        C  0.90809610  0.42844232  0.01352942     0.87100
O332        O  0.96900933  0.41528229  0.03590573    -0.88200
O333        O  0.96140695  0.43299572  0.98951871    -0.88300
O334        O  0.99624926  0.44097831  0.99767746    -0.75300
Mg335      Mg  0.90291761  0.47656195  0.01749532     1.58000
O336        O  0.90324188  0.46389122  0.95637212    -0.82700
H337        H  0.92178697  0.46108044  0.08440300    -0.06400
O338        O  0.98879415  0.45963999  0.04640143    -0.88000
H339        H  0.01348048  0.47712052  0.03222905    -0.06300
H340        H  0.95150831  0.39351041  0.05419200    -0.06400
C341        C  0.99640365  0.47699524  0.03813984     0.87100
C342        C  0.92417995  0.46686919  0.06747434     0.87700
C343        C  0.95908626  0.40986614  0.05318038     0.87800
H344        H  0.98223709  0.44688166  0.96738175    -0.06400
O345        O  0.94614718  0.48276617  0.98133338    -0.75400
Mg346      Mg  0.00212782  0.42873780  0.03366876     1.58000
H347        H  0.95260259  0.51252665  0.99628638    -0.06400
C348        C  0.97934695  0.51239612  0.09010476     0.92700
O349        O  0.99899423  0.44084152  0.09417767    -0.82700
C350        C  0.00998204  0.42342650  0.08896462     0.92800
O351        O  0.88904872  0.50877028  0.03090329    -0.82700
Mg352      Mg  0.93286290  0.44742949  0.97337352     1.58200
O353        O  0.98436148  0.49168463  0.08964909    -0.81000
O354        O  0.94191261  0.38674652  0.97559366    -0.82700
C355        C  0.71040576  0.58092695  0.08193678     0.80300
N356        N  0.70545176  0.59747757  0.09676311    -0.78000
C357        C  0.72198971  0.60969917  0.10648067     0.82700
N358        N  0.74361799  0.60492189  0.10133059    -0.78000
C359        C  0.74886933  0.58847907  0.08669286     0.82800
N360        N  0.73212525  0.57645772  0.07728208    -0.79700
C361        C  0.06369206  0.37684651  0.27260568     0.80300
N362        N  0.05591743  0.37817119  0.25133731    -0.78000
C363        C  0.06709250  0.36823101  0.23425936     0.82700
N364        N  0.08594784  0.35665401  0.23877211    -0.78000
C365        C  0.09388261  0.35524106  0.25984201     0.82800
N366        N  0.08279443  0.36530126  0.27683150    -0.79700
C367        C  0.87952797  0.20686071  0.90729379     0.80300
N368        N  0.86956435  0.20300834  0.88726003    -0.78000
C369        C  0.86511056  0.22010873  0.87303575     0.82700
N370        N  0.87103602  0.24124891  0.87875871    -0.78000
C371        C  0.88113396  0.24540749  0.89858677     0.82800
N372        N  0.88530750  0.22815973  0.91277093    -0.79700
O373        O  0.49438062  0.03684731  0.94673015    -0.88300
C374        C  0.43936467  0.07564669  0.95705801     0.87800
Mg375      Mg  0.49740879  0.01406914  0.91962804     1.58100
O376        O  0.44266811  0.02854099  0.99244554    -0.88000
O377        O  0.49493514  0.03463109  0.98318620    -0.75300
C378        C  0.39893664  0.96403192  0.91296746     0.92800
O379        O  0.46200966  0.05846159  0.90993368    -0.75100
O380        O  0.41556952  0.96767825  0.90028395    -0.82600
Mg381      Mg  0.48406698  0.07048855  0.93876427     1.58000
C382        C  0.38616277  0.98881354  0.00115501     0.92700
O383        O  0.50655450  0.08704888  0.96557055    -0.80900
H384        H  0.45882491  0.01028309  0.01527020    -0.06300
C385        C  0.40440568  0.02248088  0.93694247     0.87700
O386        O  0.48593728  0.98467032  0.94124538    -0.75400
O387        O  0.45709141  0.06629435  0.96202109    -0.88200
O388        O  0.39248876  0.00891285  0.00480206    -0.81000
C389        C  0.41844853  0.07754204  0.01763623     0.92900
C390        C  0.50502444  0.09282254  0.98600787     0.92700
Mg391      Mg  0.42193504  0.98191149  0.96110759     1.58000
O392        O  0.39906460  0.96968288  0.93342799    -0.80900
O393        O  0.44382532  0.99191934  0.99104337    -0.75200
O394        O  0.43872870  0.07770633  0.01123333    -0.81000
O395        O  0.51157311  0.07509618  0.91262662    -0.82700
O396        O  0.46855885  0.97215104  0.88860205    -0.81000
C397        C  0.44863670  0.01039545  0.00037416     0.87100
O398        O  0.44944097  0.98474704  0.93878414    -0.88200
O399        O  0.41271784  0.01589623  0.95467818    -0.88300
O400        O  0.41267880  0.01732660  0.91806124    -0.75300
Mg401      Mg  0.46562447  0.05592940  0.99533763     1.58000
O402        O  0.40493109  0.06200096  0.01216980    -0.82700
H403        H  0.51849383  0.02071276  0.96322698    -0.06400
O404        O  0.46402130  0.02188802  0.90939962    -0.88000
H405        H  0.44724212  0.03920664  0.88632857    -0.06300
H406        H  0.46615834  0.96093425  0.95517206    -0.06400
C407        C  0.45763180  0.03969144  0.90108900     0.87100
C408        C  0.50342460  0.03063102  0.96419775     0.87700
C409        C  0.46700578  0.97595382  0.94517101     0.87800
H410        H  0.38996461  0.03332313  0.93752212    -0.06400
O411        O  0.42055037  0.06740660  0.96237781    -0.75400
Mg412      Mg  0.44140500  0.99491096  0.90525032     1.58000
H413        H  0.43987336  0.09092851  0.94744021    -0.06400
C414        C  0.51710709  0.06185871  0.89690362     0.92700
O415        O  0.50129463  0.98938923  0.89169618    -0.82700
C416        C  0.48920375  0.97406296  0.88340269     0.92800
O417        O  0.48998957  0.08467959  0.99868026    -0.82700
Mg418      Mg  0.40883270  0.03731668  0.98322249     1.58200
O419        O  0.51174545  0.04125888  0.89722770    -0.81000
O420        O  0.39333375  0.97762766  0.98465716    -0.82700
C421        C  0.57182027  0.08929409  0.70644070     0.80300
N422        N  0.56567784  0.08705998  0.72816096    -0.78000
C423        C  0.57791795  0.09638994  0.74478536     0.82700
N424        N  0.59633685  0.10847227  0.73950163    -0.78000
C425        C  0.60275779  0.11083640  0.71792136     0.82800
N426        N  0.59049549  0.10126354  0.70138097    -0.79700
C427        C  0.39232603  0.26843547  0.07212393     0.80300
N428        N  0.39840175  0.24700644  0.06745314    -0.78000
C429        C  0.39079802  0.22975798  0.08015855     0.82700
N430        N  0.37680225  0.23427097  0.09728172    -0.78000
C431        C  0.37081403  0.25549247  0.10243857     0.82800
N432        N  0.37866053  0.27264539  0.08979702    -0.79700
C433        C  0.20691205  0.91512209  0.88044573     0.80300
N434        N  0.20262171  0.89716086  0.86723020    -0.78000
C435        C  0.21953060  0.88634206  0.85667227     0.82700
N436        N  0.24084061  0.89306308  0.86003737    -0.78000
C437        C  0.24551375  0.91049435  0.87361584     0.82800
N438        N  0.22846259  0.92161772  0.88365725    -0.79700
O439        O  0.55761905  0.53121917  0.50417310    -0.88300
C440        C  0.49464460  0.53525491  0.47981340     0.87800
Mg441      Mg  0.56985389  0.50076821  0.51774910     1.58100
O442        O  0.50180099  0.56090407  0.53200219    -0.88000
O443        O  0.55163693  0.56559772  0.51523305    -0.75300
C444        C  0.49008516  0.46412790  0.58626019     0.92800
O445        O  0.52921503  0.49344129  0.47892844    -0.75100
O446        O  0.50574529  0.45636398  0.57413165    -0.82600
Mg447      Mg  0.54267123  0.52885311  0.47173277     1.58000
C448        C  0.45686233  0.55169580  0.58298697     0.92700
O449        O  0.55644211  0.56378143  0.46106737    -0.80900
H450        H  0.51760770  0.58323993  0.55112186    -0.06300
C451        C  0.47523787  0.49880433  0.53305629     0.87700
O452        O  0.56215069  0.51245436  0.55336841    -0.75400
O453        O  0.51276788  0.54305429  0.48601356    -0.88200
O454        O  0.45736266  0.55946135  0.56312186    -0.81000
C455        C  0.46256193  0.58921302  0.49575222     0.92900
C456        C  0.54893982  0.58378068  0.46107153     0.92700
Mg457      Mg  0.49833381  0.51837938  0.57357055     1.58000
O458        O  0.48463992  0.48470032  0.58535203    -0.80900
O459        O  0.51191398  0.55346633  0.56628456    -0.75200
O460        O  0.48288783  0.58729679  0.48977084    -0.81000
O461        O  0.57369576  0.51210060  0.45632553    -0.82700
O462        O  0.55660198  0.45715231  0.55553779    -0.81000
C463        C  0.51042782  0.56672240  0.54981371     0.87100
O464        O  0.52734861  0.50321303  0.55964260    -0.88200
O465        O  0.48203910  0.51625155  0.54178483    -0.88300
O466        O  0.48755217  0.48159506  0.53123919    -0.75300
Mg467      Mg  0.51645973  0.57450574  0.50273756     1.58000
O468        O  0.45490598  0.57829497  0.51229156    -0.82700
H469        H  0.58092043  0.54917106  0.51998980    -0.06400
O470        O  0.53738936  0.48592552  0.51380094    -0.88000
H471        H  0.52217606  0.46382611  0.49391881    -0.06300
H472        H  0.54664446  0.51697287  0.58313379    -0.06400
C473        C  0.52948074  0.48025434  0.49558582     0.87100
C474        C  0.56422680  0.54862999  0.51312417     0.87700
C475        C  0.54537546  0.51080995  0.56621931     0.87800
H476        H  0.45853315  0.49840173  0.52615993    -0.06400
O477        O  0.47768758  0.53449964  0.49262916    -0.75400
Mg478      Mg  0.52259356  0.47153933  0.54336785     1.58000
H479        H  0.49331553  0.52841980  0.46314839    -0.06400
C480        C  0.58458714  0.49525905  0.46351935     0.92700
O481        O  0.58313971  0.46929768  0.53246158    -0.82700
C482        C  0.57652723  0.45644323  0.54797821     0.92800
O483        O  0.53231280  0.58968443  0.47278410    -0.82700
Mg484      Mg  0.46916063  0.54674913  0.52820963     1.58200
O485        O  0.58235604  0.48858159  0.48360102    -0.81000
O486        O  0.46843160  0.53489158  0.58884271    -0.82700
C487        C  0.59711485  0.76992194  0.41255588     0.80300
N488        N  0.60922668  0.77382597  0.39376616    -0.78000
C489        C  0.61866352  0.75645009  0.38256360     0.82700
N490        N  0.61640180  0.73537010  0.39063365    -0.78000
C491        C  0.60460215  0.73132272  0.40953921     0.82800
N492        N  0.59477943  0.74870433  0.42021173    -0.79700
C493        C  0.41445782  0.60788638  0.76828144     0.80300
N494        N  0.39680882  0.62172577  0.77214089    -0.78000
C495        C  0.38582841  0.63151726  0.75480107     0.82700
N496        N  0.39230980  0.62685437  0.73363457    -0.78000
C497        C  0.40984045  0.61315616  0.72946140     0.82800
N498        N  0.42066164  0.60350816  0.74687628    -0.79700
C499        C  0.76082824  0.40962322  0.59256022     0.80300
N500        N  0.73884537  0.41323744  0.58813976    -0.78000
C501        C  0.72296335  0.39851208  0.59490549     0.82700
N502        N  0.72907757  0.38011861  0.60645077    -0.78000
C503        C  0.75083082  0.37622865  0.61130736     0.82800
N504        N  0.76668622  0.39092012  0.60423809    -0.79700
O505        O  0.44726442  0.99212541  0.53714543    -0.88300
C506        C  0.45387862  0.93588151  0.57422795     0.87800
Mg507      Mg  0.42108050  0.99568147  0.51324074     1.58100
O508        O  0.49242414  0.94030304  0.52984702    -0.88000
O509        O  0.48385832  0.99220462  0.53735145    -0.75300
C510        C  0.41764821  0.89806196  0.45926270     0.92800
O511        O  0.40881692  0.96003558  0.55595180    -0.75100
O512        O  0.40441977  0.91429898  0.46317239    -0.82600
Mg513      Mg  0.43743893  0.98145035  0.57000739     1.58000
C514        C  0.50481234  0.88621426  0.48940218     0.92700
O515        O  0.46424660  0.00326599  0.58805136    -0.80900
H516        H  0.51629426  0.95744283  0.51395642    -0.06300
C517        C  0.43787476  0.90206490  0.51865958     0.87700
O518        O  0.44413924  0.98505558  0.48463470    -0.75400
O519        O  0.46016349  0.95391282  0.56634120    -0.88200
O520        O  0.50577597  0.89163650  0.50993784    -0.81000
C521        C  0.51376533  0.91304466  0.57922804     0.92900
C522        C  0.48415939  0.00013594  0.59509651     0.92700
Mg523      Mg  0.46462496  0.92140385  0.48045737     1.58000
O524        O  0.43791205  0.89870035  0.46569162    -0.80900
O525        O  0.49348570  0.94318979  0.49334501    -0.75200
O526        O  0.50798490  0.93351599  0.58020643    -0.81000
O527        O  0.41156851  0.00947734  0.57395740    -0.82700
O528        O  0.39253103  0.96787958  0.46912194    -0.81000
C529        C  0.50152060  0.94714291  0.51258673     0.87100
O530        O  0.44177297  0.94850257  0.48298963    -0.88200
O531        O  0.45572365  0.91109259  0.51349532    -0.88300
O532        O  0.41913363  0.91039515  0.51322657    -0.75300
Mg533      Mg  0.49422986  0.96173810  0.55824486     1.58000
O534        O  0.50910050  0.90079694  0.56254332    -0.82700
H535        H  0.46513125  0.01645229  0.52282794    -0.06400
O536        O  0.41071352  0.96192950  0.51945747    -0.88000
H537        H  0.38642457  0.94531528  0.53523313    -0.06300
H538        H  0.45932317  0.96630751  0.46086177    -0.06400
C539        C  0.40123173  0.95555358  0.53666060     0.87100
C540        C  0.46524821  0.00106730  0.53229496     0.87700
C541        C  0.44854442  0.96648511  0.47533876     0.87800
H542        H  0.43822136  0.88702695  0.52866308    -0.06400
O543        O  0.45923695  0.91732236  0.56542273    -0.75400
Mg544      Mg  0.40781077  0.93990335  0.49146995     1.58000
H545        H  0.44301259  0.93593246  0.58865191    -0.06400
C546        C  0.39617722  0.01484554  0.56023440     0.92700
O547        O  0.39423465  0.00031991  0.48738796    -0.82700
C548        C  0.38742222  0.98854623  0.47109749     0.92800
O549        O  0.49651802  0.98451174  0.58777394    -0.82700
Mg550      Mg  0.48221726  0.90640976  0.53664915     1.58200
O551        O  0.39716995  0.00917487  0.53978866    -0.81000
O552        O  0.48939391  0.89341140  0.47672156    -0.82700
C553        C  0.37661849  0.70627171  0.41059712     0.80300
N554        N  0.36405360  0.70194615  0.39219474    -0.78000
C555        C  0.35521952  0.71899676  0.38007897     0.82700
N556        N  0.35907146  0.74045794  0.38645450    -0.78000
C557        C  0.37206326  0.74506912  0.40442989     0.82800
N558        N  0.38072168  0.72783314  0.41641125    -0.79700
C559        C  0.20373917  0.06419130  0.59715992     0.80300
N560        N  0.20023086  0.08373762  0.60822746    -0.78000
C561        C  0.21779184  0.09614954  0.61548653     0.82700
N562        N  0.23889114  0.08869641  0.61198742    -0.78000
C563        C  0.24274200  0.06921237  0.60108855     0.82800
N564        N  0.22507147  0.05715585  0.59341217    -0.79700
C565        C  0.56548401  0.87681513  0.76858413     0.80300
N566        N  0.55898935  0.87908161  0.74698424    -0.78000
C567        C  0.57092246  0.86982570  0.73007687     0.82700
N568        N  0.58984055  0.85836933  0.73500772    -0.78000
C569        C  0.59676202  0.85597301  0.75649279     0.82800
N570        N  0.58452136  0.86528630  0.77323242    -0.79700
C571        C  0.24578409  0.25820828  0.72534153     0.80300
N572        N  0.23407630  0.26157617  0.74449500    -0.78000
C573        C  0.21599388  0.24878417  0.74950022     0.82700
N574        N  0.20985040  0.23229389  0.73511613    -0.78000
C575        C  0.22137162  0.22892201  0.71587876     0.82800
N576        N  0.23939521  0.24181379  0.71108648    -0.79700
C577        C  0.21419009  0.11702980  0.62814492    -0.11900
C578        C  0.22819477  0.13580021  0.62520400     0.03600
C579        C  0.22639150  0.15403637  0.63962839    -0.12400
C580        C  0.21062596  0.15412388  0.65689431     0.18400
C581        C  0.19553355  0.13618577  0.65885757    -0.09500
C582        C  0.19744808  0.11776761  0.64456836    -0.02400
H583        H  0.23764175  0.16808640  0.63762572     0.05000
C584        C  0.21092257  0.17283089  0.67296235     0.20400
H585        H  0.18631668  0.10368004  0.64682014     0.10100
C586        C  0.20530186  0.19437471  0.66559961    -0.15800
C587        C  0.20791347  0.21285941  0.67965404     0.03100
C588        C  0.21602166  0.20983660  0.70146790    -0.11100
C589        C  0.22110370  0.18827018  0.70903717    -0.01100
C590        C  0.21894476  0.16983721  0.69487159    -0.06300
H591        H  0.19939432  0.19685502  0.64869258     0.06100
H592        H  0.22780669  0.18590951  0.72566738     0.09500
Br593      Br  0.17217628  0.13616482  0.68078296    -0.06000
Br594      Br  0.24945511  0.13803268  0.60130282    -0.03000
Br595      Br  0.20036907  0.24188603  0.66839443    -0.00100
Br596      Br  0.22916941  0.14133745  0.70549328    -0.04500
C597        C  0.52580536  0.90344362  0.59840606    -0.11900
C598        C  0.51891740  0.88324794  0.60845692     0.03600
C599        C  0.52828884  0.87665622  0.62880768    -0.12400
C600        C  0.54462409  0.88979353  0.63922410     0.18400
C601        C  0.55277751  0.90896007  0.62829974    -0.09500
C602        C  0.54309991  0.91584622  0.60823139    -0.02400
H603        H  0.52204442  0.86180617  0.63707157     0.05000
C604        C  0.55133871  0.88446858  0.66233059     0.20400
H605        H  0.54879639  0.93118879  0.60048318     0.10100
C606        C  0.56403329  0.86530371  0.66669986    -0.15800
C607        C  0.57032954  0.85979385  0.68854965     0.03100
C608        C  0.56405220  0.87386790  0.70654332    -0.11100
C609        C  0.55076542  0.89273020  0.70194665    -0.01100
C610        C  0.54424455  0.89793193  0.68021177    -0.06300
H611        H  0.56892741  0.85449683  0.65303571     0.06100
H612        H  0.54539915  0.90366936  0.71531524     0.09500
Br613      Br  0.57675770  0.92641982  0.64044484    -0.06000
Br614      Br  0.49518775  0.86528499  0.59650841    -0.03000
Br615      Br  0.58607968  0.83210262  0.69234606    -0.00100
Br616      Br  0.52482449  0.92312988  0.67591006    -0.04500
C617        C  0.37597965  0.02699392  0.56819909    -0.11900
C618        C  0.36165870  0.03859848  0.55332647     0.03600
C619        C  0.34094259  0.04640823  0.56073807    -0.12400
C620        C  0.33421449  0.04355146  0.58291918     0.18400
C621        C  0.34904563  0.03363832  0.59820048    -0.09500
C622        C  0.36968083  0.02536292  0.59079296    -0.02400
H623        H  0.32982063  0.05454423  0.54900657     0.05000
C624        C  0.31127157  0.05024302  0.58929232     0.20400
H625        H  0.38047212  0.01697663  0.60263739     0.10100
C626        C  0.29516512  0.03366706  0.59325461    -0.15800
C627        C  0.27277666  0.03930976  0.59722653     0.03100
C628        C  0.26615344  0.06199624  0.59710096    -0.11100
C629        C  0.28253777  0.07851818  0.59364936    -0.01100
C630        C  0.30484745  0.07283010  0.58973587    -0.06300
H631        H  0.30001769  0.01621795  0.59301505     0.06100
H632        H  0.27796542  0.09601931  0.59369193     0.09500
Br633      Br  0.34181422  0.03129791  0.62929144    -0.06000
Br634      Br  0.36925672  0.04510451  0.52281987    -0.03000
Br635      Br  0.25252704  0.01533019  0.60387707    -0.00100
Br636      Br  0.32606248  0.09647227  0.58536859    -0.04500
C637        C  0.40972042  0.87718881  0.44806537    -0.11900
C638        C  0.38714369  0.87321210  0.44203185     0.03600
C639        C  0.38065135  0.85199561  0.43440641    -0.12400
C640        C  0.39614381  0.83451952  0.43260427     0.18400
C641        C  0.41870701  0.83865848  0.43746122    -0.09500
C642        C  0.42527498  0.85969533  0.44506917    -0.02400
H643        H  0.36329607  0.84896588  0.43026674     0.05000
C644        C  0.38858755  0.81201589  0.42571935     0.20400
H645        H  0.44273565  0.86208640  0.44914383     0.10100
C646        C  0.38310689  0.80809178  0.40335021    -0.15800
C647        C  0.37731689  0.78663896  0.39593572     0.03100
C648        C  0.37687794  0.76853021  0.41121717    -0.11100
C649        C  0.38186507  0.77283230  0.43376374    -0.01100
C650        C  0.38756187  0.79426540  0.44106654    -0.06300
H651        H  0.38390673  0.82172163  0.39146743     0.06100
H652        H  0.38133496  0.75946050  0.44589938     0.09500
Br653      Br  0.44122926  0.81603467  0.43404851    -0.06000
Br654      Br  0.36403554  0.89540892  0.44394399    -0.03000
Br655      Br  0.37180335  0.78345407  0.36451675    -0.00100
Br656      Br  0.39366608  0.79851642  0.47222672    -0.04500
C657        C  0.58532120  0.78827454  0.42391437    -0.11900
C658        C  0.56241592  0.78645844  0.42914535     0.03600
C659        C  0.55175334  0.80365485  0.44069926    -0.12400
C660        C  0.56347615  0.82285494  0.44705398     0.18400
C661        C  0.58625141  0.82492011  0.44164131    -0.09500
C662        C  0.59702363  0.80767905  0.43001977    -0.02400
H663        H  0.53409454  0.80223302  0.44443886     0.05000
C664        C  0.55105121  0.84081705  0.45837800     0.20400
H665        H  0.61461124  0.80926202  0.42605040     0.10100
C666        C  0.54747126  0.83951390  0.48144090    -0.15800
C667        C  0.53302658  0.85446855  0.49218970     0.03100
C668        C  0.52189577  0.87115156  0.47963638    -0.11100
C669        C  0.52615483  0.87266922  0.45658504    -0.01100
C670        C  0.54047353  0.85764987  0.44595971    -0.06300
H671        H  0.55529154  0.82624988  0.49095990     0.06100
H672        H  0.51790632  0.88531388  0.44660609     0.09500
Br673      Br  0.60307656  0.85090260  0.44988907    -0.06000
Br674      Br  0.54443107  0.76166007  0.41957076    -0.03000
Br675      Br  0.52781669  0.84962779  0.52346116    -0.00100
Br676      Br  0.54412116  0.85987739  0.41422104    -0.04500
C677        C  0.44359708  0.56295493  0.60046083    -0.11900
C678        C  0.43220691  0.55044538  0.61689758     0.03600
C679        C  0.42444417  0.56097496  0.63620179    -0.12400
C680        C  0.42777540  0.58390138  0.63944518     0.18400
C681        C  0.43748470  0.59674786  0.62234176    -0.09500
C682        C  0.44521280  0.58625572  0.60290287    -0.02400
H683        H  0.41665277  0.55106595  0.64918995     0.05000
C684        C  0.42334299  0.59337603  0.66172984     0.20400
H685        H  0.45383844  0.59610246  0.59041092     0.10100
C686        C  0.44086614  0.59423887  0.67720713    -0.15800
C687        C  0.43712614  0.60114199  0.69920290     0.03100
C688        C  0.41533881  0.60716659  0.70606923    -0.11100
C689        C  0.39799542  0.60697226  0.69017548    -0.01100
C690        C  0.40184300  0.60008467  0.66821717    -0.06300
H691        H  0.45752726  0.58924842  0.67217266     0.06100
H692        H  0.38117160  0.61163611  0.69494356     0.09500
Br693      Br  0.44162630  0.62836188  0.62555477    -0.06000
Br694      Br  0.42718481  0.51885771  0.61406862    -0.03000
Br695      Br  0.46269456  0.60281548  0.71848280    -0.00100
Br696      Br  0.37727643  0.59980029  0.64770340    -0.04500
C697        C  0.38677367  0.68768428  0.42346021    -0.11900
C698        C  0.38999785  0.68886725  0.44682585     0.03600
C699        C  0.40125794  0.67166247  0.45792043    -0.12400
C700        C  0.40929105  0.65306648  0.44624842     0.18400
C701        C  0.40522991  0.65127287  0.42321086    -0.09500
C702        C  0.39405431  0.66848796  0.41200940    -0.02400
H703        H  0.40400914  0.67290703  0.47574934     0.05000
C704        C  0.42270691  0.63626762  0.45832273     0.20400
H705        H  0.39158160  0.66708484  0.39416739     0.10100
C706        C  0.41205204  0.62040929  0.47183185    -0.15800
C707        C  0.42443838  0.60475246  0.48408741     0.03100
C708        C  0.44810896  0.60508615  0.48315156    -0.11100
C709        C  0.45856030  0.62111553  0.46941766    -0.01100
C710        C  0.44612639  0.63653700  0.45712723    -0.06300
H711        H  0.39397477  0.62014999  0.47273228     0.06100
H712        H  0.47660460  0.62190556  0.46832826     0.09500
Br713      Br  0.41488590  0.62571861  0.40644659    -0.06000
Br714      Br  0.37855391  0.71276026  0.46490433    -0.03000
Br715      Br  0.40768308  0.58307277  0.50079036    -0.00100
Br716      Br  0.46188618  0.65805648  0.43931148    -0.04500
C717        C  0.56018953  0.60142041  0.44822415    -0.11900
C718        C  0.54764516  0.61669541  0.43539229     0.03600
C719        C  0.55758932  0.63633273  0.42770904    -0.12400
C720        C  0.57984144  0.64123077  0.43294065     0.18400
C721        C  0.59270675  0.62559820  0.44486208    -0.09500
C722        C  0.58290383  0.60565287  0.45218422    -0.02400
H723        H  0.54765091  0.64831451  0.41846552     0.05000
C724        C  0.58851961  0.66357793  0.42743814     0.20400
H725        H  0.59259561  0.59421921  0.46232768     0.10100
C726        C  0.58835363  0.68017416  0.44391930    -0.15800
C727        C  0.59419810  0.70223740  0.43884287     0.03100
C728        C  0.60038078  0.70794943  0.41674246    -0.11100
C729        C  0.60136740  0.69088164  0.40058331    -0.01100
C730        C  0.59528455  0.66896182  0.40570246    -0.06300
H731        H  0.58319257  0.67599387  0.46074572     0.06100
H732        H  0.60615613  0.69462164  0.38360979     0.09500
Br733      Br  0.62320506  0.63155033  0.45261239    -0.06000
Br734      Br  0.51662513  0.61196246  0.42867281    -0.03000
Br735      Br  0.59376089  0.72321788  0.46312823    -0.00100
Br736      Br  0.59585135  0.64702264  0.38237339    -0.04500
C737        C  0.59313036  0.44058700  0.55705667    -0.11900
C738        C  0.59540025  0.43613240  0.58008891     0.03600
C739        C  0.61471176  0.42539019  0.58790681    -0.12400
C740        C  0.63174770  0.41904970  0.57307065     0.18400
C741        C  0.62846609  0.42166778  0.54999086    -0.09500
C742        C  0.60928229  0.43224848  0.54221652    -0.02400
H743        H  0.61710785  0.42327032  0.60570004     0.05000
C744        C  0.65401967  0.41283756  0.58162730     0.20400
H745        H  0.60763361  0.43517408  0.52444120     0.10100
C746        C  0.66224673  0.39119440  0.57802127    -0.15800
C747        C  0.68463988  0.38606619  0.58235783     0.03100
C748        C  0.69914375  0.40284094  0.59046009    -0.11100
C749        C  0.69067403  0.42426047  0.59467995    -0.01100
C750        C  0.66829433  0.42930125  0.59051333    -0.06300
H751        H  0.65144200  0.37854457  0.57088883     0.06100
H752        H  0.70155565  0.43718631  0.60117723     0.09500
Br753      Br  0.65080196  0.41353442  0.52843944    -0.06000
Br754      Br  0.57422803  0.44649221  0.60181155    -0.03000
Br755      Br  0.69480191  0.35655624  0.57488438    -0.00100
Br756      Br  0.65838334  0.45929811  0.59609051    -0.04500
C757        C  0.49359743  0.01485323  0.61239786    -0.11900
C758        C  0.50428702  0.00570203  0.63129242     0.03600
C759        C  0.51554803  0.01967302  0.64617078    -0.12400
C760        C  0.51650012  0.04276224  0.64251442     0.18400
C761        C  0.50531712  0.05205936  0.62405456    -0.09500
C762        C  0.49376712  0.03809999  0.60922036    -0.02400
H763        H  0.52393931  0.01246130  0.66048443     0.05000
C764        C  0.52999182  0.05654809  0.65784339     0.20400
H765        H  0.48571646  0.04529769  0.59471316     0.10100
C766        C  0.55264990  0.05998803  0.65310797    -0.15800
C767        C  0.56664803  0.07083261  0.66839303     0.03100
C768        C  0.55781159  0.07880176  0.68882223    -0.11100
C769        C  0.53489895  0.07557614  0.69320392    -0.01100
C770        C  0.52111181  0.06440179  0.67804807    -0.06300
H771        H  0.55965116  0.05344369  0.63776208     0.06100
H772        H  0.52766481  0.08143748  0.70870916     0.09500
Br773      Br  0.50608501  0.08354806  0.61819807    -0.06000
Br774      Br  0.50374661  0.97424430  0.63775772    -0.03000
Br775      Br  0.59784844  0.07198095  0.66104515    -0.00100
Br776      Br  0.49045152  0.05940748  0.68594361    -0.04500
C777        C  0.26894685  0.91726500  0.87742340    -0.11900
C778        C  0.28669333  0.90158925  0.87756139     0.03600
C779        C  0.30852978  0.90885162  0.88129499    -0.12400
C780        C  0.31310380  0.93141367  0.88529230     0.18400
C781        C  0.29559213  0.94707189  0.88515414    -0.09500
C782        C  0.27372634  0.93994732  0.88120774    -0.02400
H783        H  0.32197493  0.89672761  0.88184125     0.05000
C784        C  0.33593856  0.93799237  0.89149672     0.20400
H785        H  0.26040000  0.95220311  0.88120192     0.10100
C786        C  0.34920878  0.94981108  0.87627579    -0.15800
C787        C  0.37034737  0.95765854  0.88244460     0.03100
C788        C  0.37848008  0.95342151  0.90419758    -0.11100
C789        C  0.36531430  0.94088431  0.91905367    -0.01100
C790        C  0.34421680  0.93325276  0.91290244    -0.06300
H791        H  0.34276955  0.95355849  0.85979850     0.06100
H792        H  0.37116316  0.93758026  0.93584428     0.09500
Br793      Br  0.30065132  0.97812899  0.89136054    -0.06000
Br794      Br  0.28245089  0.86984272  0.87492090    -0.03000
Br795      Br  0.38601295  0.97585189  0.86116510    -0.00100
Br796      Br  0.32668372  0.91774064  0.93482072    -0.04500
C797        C  0.49962437  0.95820931  0.86723720    -0.11900
C798        C  0.51903671  0.96400197  0.85495014     0.03600
C799        C  0.52850155  0.94877315  0.84008512    -0.12400
C800        C  0.51888574  0.92780753  0.83639675     0.18400
C801        C  0.49971903  0.92170963  0.84862011    -0.09500
C802        C  0.49022665  0.93687322  0.86384847    -0.02400
H803        H  0.54323667  0.95360460  0.83073352     0.05000
C804        C  0.52884926  0.91337383  0.81888174     0.20400
H805        H  0.47543723  0.93194641  0.87303056     0.10100
C806        C  0.53982874  0.89348978  0.82474888    -0.15800
C807        C  0.55156022  0.88096812  0.80874170     0.03100
C808        C  0.55262924  0.88850597  0.78636668    -0.11100
C809        C  0.54104735  0.90812930  0.78057376    -0.01100
C810        C  0.52930421  0.92046777  0.79648415    -0.06300
H811        H  0.53958419  0.88788776  0.84193805     0.06100
H812        H  0.54143835  0.91427217  0.76357282     0.09500
Br813      Br  0.48554170  0.89327361  0.84446082    -0.06000
Br814      Br  0.53295204  0.99288147  0.85587975    -0.03000
Br815      Br  0.56482394  0.85342077  0.81846530    -0.00100
Br816      Br  0.51414247  0.94702136  0.78668933    -0.04500
C817        C  0.57090525  0.09342669  0.76832761    -0.11900
C818        C  0.58639594  0.09181663  0.78609904     0.03600
C819        C  0.57873752  0.08838629  0.80790263    -0.12400
C820        C  0.55588046  0.08617611  0.81242612     0.18400
C821        C  0.54043191  0.08773100  0.79480859    -0.09500
C822        C  0.54798361  0.09136916  0.77304775    -0.02400
H823        H  0.59071400  0.08685534  0.82136969     0.05000
C824        C  0.54844434  0.08102429  0.83537123     0.20400
H825        H  0.53581667  0.09243011  0.75970927     0.10100
C826        C  0.53627608  0.09697901  0.84747438    -0.15800
C827        C  0.52692293  0.09171480  0.86826266     0.03100
C828        C  0.52977349  0.07003452  0.87724253    -0.11100
C829        C  0.54318479  0.05463897  0.86558668    -0.01100
C830        C  0.55237103  0.05989162  0.84482552    -0.06300
H831        H  0.53337864  0.11335829  0.84031864     0.06100
H832        H  0.54597845  0.03810399  0.87235882     0.09500
Br833      Br  0.50893632  0.08383880  0.79945813    -0.06000
Br834      Br  0.61820176  0.09215685  0.78180266    -0.03000
Br835      Br  0.50904882  0.11432179  0.88234246    -0.00100
Br836      Br  0.56878173  0.03710561  0.82928634    -0.04500
C837        C  0.39631412  0.20615305  0.07444134    -0.11900
C838        C  0.39245388  0.18803053  0.08931689     0.03600
C839        C  0.39511726  0.16600282  0.08188194    -0.12400
C840        C  0.40244637  0.16148918  0.06018055     0.18400
C841        C  0.40803390  0.17937620  0.04600066    -0.09500
C842        C  0.40473269  0.20139031  0.05304576    -0.02400
H843        H  0.39148910  0.15227873  0.09311419     0.05000
C844        C  0.40410154  0.13812538  0.05230832     0.20400
H845        H  0.40845945  0.21479360  0.04148570     0.10100
C846        C  0.38969780  0.13083186  0.03532132    -0.15800
C847        C  0.39300653  0.11018464  0.02485325     0.03100
C848        C  0.41094508  0.09646753  0.03148461    -0.11100
C849        C  0.42440708  0.10315859  0.04948808    -0.01100
C850        C  0.42101214  0.12373943  0.06002116    -0.06300
H851        H  0.37657420  0.14179617  0.02937925     0.06100
H852        H  0.43830174  0.09277882  0.05468389     0.09500
Br853      Br  0.42076890  0.17452284  0.01700115    -0.06000
Br854      Br  0.38470779  0.19154808  0.12028573    -0.03000
Br855      Br  0.37442395  0.10295389  0.99979547    -0.00100
Br856      Br  0.44111356  0.13227812  0.08345210    -0.04500
C857        C  0.91900997  0.37496001  0.94643748    -0.11900
C858        C  0.89617604  0.37154086  0.94174694     0.03600
C859        C  0.88933202  0.35153274  0.93156545    -0.12400
C860        C  0.90496172  0.33488491  0.92601573     0.18400
C861        C  0.92782220  0.33898662  0.92940608    -0.09500
C862        C  0.93462482  0.35888389  0.93936767    -0.02400
H863        H  0.87169146  0.34848484  0.92892784     0.05000
C864        C  0.89731766  0.31259337  0.91857980     0.20400
H865        H  0.95225761  0.36127262  0.94272725     0.10100
C866        C  0.90146954  0.30568452  0.89661636    -0.15800
C867        C  0.89650734  0.28386342  0.88976711     0.03100
C868        C  0.88692825  0.26858731  0.90501395    -0.11100
C869        C  0.88274489  0.27562392  0.92697554    -0.01100
C870        C  0.88787929  0.29737350  0.93382285    -0.06300
H871        H  0.90926184  0.31713139  0.88496183     0.06100
H872        H  0.87544012  0.26415025  0.93890083     0.09500
Br873      Br  0.95030718  0.31702783  0.92288539    -0.06000
Br874      Br  0.87355214  0.39230688  0.95093688    -0.03000
Br875      Br  0.90514778  0.27544735  0.86008177    -0.00100
Br876      Br  0.88281146  0.30517076  0.96447695    -0.04500
C877        C  0.77252418  0.58253928  0.08189781    -0.11900
C878        C  0.79049022  0.59790981  0.08373796     0.03600
C879        C  0.81242629  0.59082623  0.07937078    -0.12400
C880        C  0.81681491  0.56875255  0.07292623     0.18400
C881        C  0.79901403  0.55361884  0.07070161    -0.09500
C882        C  0.77722608  0.56049957  0.07521848    -0.02400
H883        H  0.82606604  0.60266094  0.08061346     0.05000
C884        C  0.83976397  0.56155477  0.06746014     0.20400
H885        H  0.76389274  0.54837303  0.07358133     0.10100
C886        C  0.85247486  0.55034061  0.08364640    -0.15800
C887        C  0.87180746  0.53854413  0.07762822     0.03100
C888        C  0.87839055  0.53771744  0.05504847    -0.11100
C889        C  0.86650347  0.55031670  0.03922864    -0.01100
C890        C  0.84743260  0.56231913  0.04530685    -0.06300
H891        H  0.84655920  0.54958304  0.10071829     0.06100
H892        H  0.87146763  0.54994203  0.02183813     0.09500
Br893      Br  0.80366179  0.52335952  0.06108223    -0.06000
Br894      Br  0.78642134  0.62903508  0.09052097    -0.03000
Br895      Br  0.88686026  0.52164159  0.10029843    -0.00100
Br896      Br  0.83120515  0.57787961  0.02248214    -0.04500
C897        C  0.02159147  0.41163470  0.10709830    -0.11900
C898        C  0.01999894  0.38825207  0.10996221     0.03600
C899        C  0.02794384  0.37845475  0.12964479    -0.12400
C900        C  0.03753447  0.39168244  0.14637743     0.18400
C901        C  0.04017788  0.41476530  0.14300522    -0.09500
C902        C  0.03211973  0.42456926  0.12354697    -0.02400
H903        H  0.02596585  0.36064144  0.13224189     0.05000
C904        C  0.04385676  0.38171977  0.16784835     0.20400
H905        H  0.03350821  0.44252148  0.12153226     0.10100
C906        C  0.06589111  0.37475887  0.17098505    -0.15800
C907        C  0.07380292  0.36943641  0.19225429     0.03100
C908        C  0.05925634  0.37098997  0.21094140    -0.11100
C909        C  0.03676356  0.37677836  0.20731835    -0.01100
C910        C  0.02905413  0.38217853  0.18601969    -0.06300
H911        H  0.07731975  0.37465667  0.15695294     0.06100
H912        H  0.02521055  0.37779981  0.22119834     0.09500
Br913      Br  0.05380133  0.43367658  0.16502625    -0.06000
Br914      Br  0.00527563  0.36925015  0.08875260    -0.03000
Br915      Br  0.10512258  0.36246175  0.19407061    -0.00100
Br916      Br  0.99857269  0.39153460  0.18266470    -0.04500
C917        C  0.78915651  0.54673442  0.88720613    -0.11900
C918        C  0.78606505  0.52530782  0.89697491     0.03600
C919        C  0.80415377  0.51425522  0.90683168    -0.12400
C920        C  0.82546623  0.52382382  0.90696047     0.18400
C921        C  0.82904106  0.54413524  0.89577019    -0.09500
C922        C  0.81102407  0.55541748  0.88612999    -0.02400
H923        H  0.80145922  0.49832112  0.91500785     0.05000
C924        C  0.84326656  0.51323489  0.92033908     0.20400
H925        H  0.81419461  0.57139541  0.87830188     0.10100
C926        C  0.85248105  0.49280664  0.91354865    -0.15800
C927        C  0.86852831  0.48186211  0.92663819     0.03100
C928        C  0.87581708  0.49165730  0.94694280    -0.11100
C929        C  0.86644354  0.51225980  0.95345259    -0.01100
C930        C  0.85014476  0.52280067  0.94060803    -0.06300
H931        H  0.84682583  0.48514056  0.89817516     0.06100
H932        H  0.87133811  0.52008451  0.96899909     0.09500
Br933      Br  0.85823215  0.55723176  0.89360896    -0.06000
Br934      Br  0.75814606  0.50946762  0.89737222    -0.03000
Br935      Br  0.87831711  0.45309680  0.91620837    -0.00100
Br936      Br  0.83659832  0.54945821  0.95231041    -0.04500
C937        C  0.52066437  0.10976303  0.99559832    -0.11900
C938        C  0.53421741  0.12414442  0.98244400     0.03600
C939        C  0.54710221  0.14082611  0.99277136    -0.12400
C940        C  0.54701692  0.14348919  0.01602926     0.18400
C941        C  0.53405469  0.12893247  0.02911330    -0.09500
C942        C  0.52111833  0.11239823  0.01895540    -0.02400
H943        H  0.55701963  0.15201724  0.98257310     0.05000
C944        C  0.55987673  0.16188129  0.02655642     0.20400
H945        H  0.51121786  0.10159539  0.02956476     0.10100
C946        C  0.54822009  0.17934648  0.03699054    -0.15800
C947        C  0.55959471  0.19609022  0.04864836     0.03100
C948        C  0.58310677  0.19566664  0.04990507    -0.11100
C949        C  0.59483351  0.17835199  0.03929758    -0.01100
C950        C  0.58340324  0.16159253  0.02754683    -0.06300
H951        H  0.53012749  0.17964873  0.03648128     0.06100
H952        H  0.61291123  0.17795192  0.04003459     0.09500
Br953      Br  0.53372273  0.13072389  0.06109570    -0.06000
Br954      Br  0.53560611  0.12287410  0.95041351    -0.03000
Br955      Br  0.54215865  0.21830398  0.06388612    -0.00100
Br956      Br  0.60049063  0.13823922  0.01378698    -0.04500
C957        C  0.36044926  0.34275333  0.71842827    -0.11900
C958        C  0.34111919  0.34571610  0.73162402     0.03600
C959        C  0.32355032  0.33051053  0.73011576    -0.12400
C960        C  0.32466935  0.31216854  0.71566118     0.18400
C961        C  0.34334254  0.30974001  0.70155887    -0.09500
C962        C  0.36107369  0.32505322  0.70298098    -0.02400
H963        H  0.30897422  0.33279248  0.74061021     0.05000
C964        C  0.30624332  0.29572270  0.71648089     0.20400
H965        H  0.37572885  0.32260276  0.69265445     0.10100
C966        C  0.29055544  0.29486191  0.69911063    -0.15800
C967        C  0.27093660  0.28224054  0.70134691     0.03100
C968        C  0.26667828  0.27065092  0.72140749    -0.11100
C969        C  0.28279177  0.27089143  0.73836542    -0.01100
C970        C  0.30253383  0.28305837  0.73594278    -0.06300
H971        H  0.29317508  0.30470144  0.68415989     0.06100
H972        H  0.28000708  0.26154406  0.75360074     0.09500
Br973      Br  0.34583444  0.28516596  0.68116886    -0.06000
Br974      Br  0.33719905  0.37054502  0.75158815    -0.03000
Br975      Br  0.24979748  0.28287026  0.67732930    -0.00100
Br976      Br  0.32397665  0.28197106  0.75972415    -0.04500
C977        C  0.42285915  0.38812181  0.68851220    -0.11900
C978        C  0.44577164  0.39394521  0.68983213     0.03600
C979        C  0.45601598  0.40527031  0.67213884    -0.12400
C980        C  0.44397833  0.41094783  0.65294890     0.18400
C981        C  0.42144685  0.40455502  0.65117543    -0.09500
C982        C  0.41110225  0.39317628  0.66880598    -0.02400
H983        H  0.47345875  0.40993162  0.67345469     0.05000
C984        C  0.45509269  0.42427273  0.63538273     0.20400
H985        H  0.39357995  0.38891110  0.66733698     0.10100
C986        C  0.46886357  0.41365700  0.61972594    -0.15800
C987        C  0.48036626  0.42597938  0.60343602     0.03100
C988        C  0.47807968  0.44958085  0.60261962    -0.11100
C989        C  0.46408830  0.45997293  0.61849893    -0.01100
C990        C  0.45283538  0.44761379  0.63476541    -0.06300
H991        H  0.47077726  0.39565498  0.62029147     0.06100
H992        H  0.46212705  0.47796307  0.61865618     0.09500
Br993      Br  0.40412608  0.41149671  0.62516338    -0.06000
Br994      Br  0.46449352  0.38629132  0.71472060    -0.03000
Br995      Br  0.49864012  0.40915201  0.58313065    -0.00100
Br996      Br  0.43517088  0.46341543  0.65636614    -0.04500
C997        C  0.69237621  0.56729909  0.07156503    -0.11900
C998        C  0.69479493  0.55717656  0.05028435     0.03600
C999        C  0.67742975  0.54427113  0.04144782    -0.12400
C1000       C  0.65747344  0.54119998  0.05322219     0.18400
C1001       C  0.65495110  0.55109685  0.07433856    -0.09500
C1002       C  0.67226691  0.56403333  0.08332091    -0.02400
H1003       H  0.67924466  0.53705936  0.02495537     0.05000
C1004       C  0.63879168  0.52947120  0.04212552     0.20400
H1005       H  0.66999353  0.57147557  0.09964069     0.10100
C1006       C  0.63537543  0.50654397  0.04562670    -0.15800
C1007       C  0.61864344  0.49488058  0.03398487     0.03100
C1008       C  0.60488495  0.50637220  0.01846956    -0.11100
C1009       C  0.60826542  0.52955752  0.01564188    -0.01100
C1010       C  0.62500330  0.54096813  0.02710650    -0.06300
H1011       H  0.64608102  0.49760300  0.05714855     0.06100
H1012       H  0.59813233  0.53902394  0.00403555     0.09500
Br1013     Br  0.62790338  0.54776159  0.09115100    -0.06000
Br1014     Br  0.72040685  0.56139287  0.03136839    -0.03000
Br1015     Br  0.61641463  0.46336646  0.03971094    -0.00100
Br1016     Br  0.62882184  0.57229507  0.02126538    -0.04500
C1017       C  0.59652524  0.53266316  0.91024304    -0.11900
C1018       C  0.60335265  0.53458475  0.88767578     0.03600
C1019       C  0.62522964  0.54141604  0.88263996    -0.12400
C1020       C  0.64055430  0.54636441  0.89963592     0.18400
C1021       C  0.63367297  0.54524093  0.92196656    -0.09500
C1022       C  0.61191573  0.53867702  0.92707223    -0.02400
H1023       H  0.63049337  0.54240765  0.86536826     0.05000
C1024       C  0.66383262  0.55224144  0.89395392     0.20400
H1025       H  0.60735772  0.53754354  0.94453013     0.10100
C1026       C  0.67038218  0.57471309  0.89426274    -0.15800
C1027       C  0.69249328  0.58081402  0.88970801     0.03100
C1028       C  0.70846876  0.56419229  0.88448623    -0.11100
C1029       C  0.70185081  0.54165365  0.88457722    -0.01100
C1030       C  0.67978405  0.53561301  0.88932245    -0.06300
H1031       H  0.65827810  0.58753126  0.89840066     0.06100
H1032       H  0.71380189  0.52865887  0.88063860     0.09500
Br1033     Br  0.65384887  0.55120469  0.94615598    -0.06000
Br1034     Br  0.58444930  0.52722507  0.86287583    -0.03000
Br1035     Br  0.70000282  0.61190008  0.89248812    -0.00100
Br1036     Br  0.67226640  0.50444719  0.88985638    -0.04500
C1037       C  0.40108137  0.28707216  0.05848217    -0.11900
C1038       C  0.40073430  0.28647494  0.03492717     0.03600
C1039       C  0.41070126  0.30374496  0.02264976    -0.12400
C1040       C  0.42111659  0.32168805  0.03350078     0.18400
C1041       C  0.42069600  0.32273512  0.05697983    -0.09500
C1042       C  0.41062497  0.30557665  0.06925726    -0.02400
H1043       H  0.41074055  0.30294749  0.00458877     0.05000
C1044       C  0.43368126  0.33836545  0.02027373     0.20400
H1045       H  0.41088900  0.30635080  0.08731674     0.10100
C1046       C  0.42234478  0.35565258  0.00914847    -0.15800
C1047       C  0.43422573  0.37239809  0.99775355     0.03100
C1048       C  0.45777551  0.37190152  0.99751149    -0.11100
C1049       C  0.46893714  0.35424972  0.00819873    -0.01100
C1050       C  0.45713649  0.33749747  0.01930556    -0.06300
H1051       H  0.40427760  0.35642731  0.00983195     0.06100
H1052       H  0.48703092  0.35354934  0.00800399     0.09500
Br1053     Br  0.43418525  0.34703879  0.07294392    -0.06000
Br1054     Br  0.38614903  0.26297433  0.01870969    -0.03000
Br1055     Br  0.41772896  0.39642103  0.98444021    -0.00100
Br1056     Br  0.47379848  0.31376699  0.03302001    -0.04500
C1057       C  0.56778320  0.38591759  0.02887621    -0.11900
C1058       C  0.55441638  0.37274430  0.04322690     0.03600
C1059       C  0.56250542  0.35232069  0.05115711    -0.12400
C1060       C  0.58370572  0.34463887  0.04496950     0.18400
C1061       C  0.59754223  0.35822314  0.03172756    -0.09500
C1062       C  0.58963088  0.37881523  0.02397469    -0.02400
H1063       H  0.55185158  0.34193507  0.06146979     0.05000
C1064       C  0.58984658  0.32136946  0.05021721     0.20400
H1065       H  0.60012794  0.38865203  0.01299534     0.10100
C1066       C  0.58566409  0.30487267  0.03421972    -0.15800
C1067       C  0.58982729  0.28232125  0.03870037     0.03100
C1068       C  0.59848736  0.27588432  0.05978356    -0.11100
C1069       C  0.60298944  0.29276104  0.07562871    -0.01100
C1070       C  0.59862115  0.31526689  0.07103502    -0.06300
H1071       H  0.57885437  0.30961096  0.01814378     0.06100
H1072       H  0.60954525  0.28849891  0.09191836     0.09500
Br1073     Br  0.62679604  0.34864444  0.02282895    -0.06000
Br1074     Br  0.52494362  0.38148133  0.05248995    -0.03000
Br1075     Br  0.58353915  0.26186962  0.01477834    -0.00100
Br1076     Br  0.60462895  0.33711723  0.09367014    -0.04500
C1077       C  0.47492057  0.52829411  0.87165040    -0.11900
C1078       C  0.45222942  0.53487353  0.87276465     0.03600
C1079       C  0.44340173  0.54924310  0.85655232    -0.12400
C1080       C  0.45672645  0.55723043  0.83906062     0.18400
C1081       C  0.47954639  0.55154644  0.83847175    -0.09500
C1082       C  0.48846153  0.53728016  0.85470562    -0.02400
H1083       H  0.42590124  0.55381581  0.85730065     0.05000
C1084       C  0.44622697  0.57042679  0.82097465     0.20400
H1085       H  0.50591685  0.53261692  0.85361544     0.10100
C1086       C  0.43953563  0.59255506  0.82493355    -0.15800
C1087       C  0.42922123  0.60522697  0.80811894     0.03100
C1088       C  0.42549218  0.59568113  0.78684142    -0.11100
C1089       C  0.43224505  0.57348553  0.78307623    -0.01100
C1090       C  0.44224066  0.56083156  0.79992612    -0.06300
H1091       H  0.44247013  0.60002299  0.84113916     0.06100
H1092       H  0.42923733  0.56567367  0.76704739     0.09500
Br1093     Br  0.49906261  0.56257518  0.81557676    -0.06000
Br1094     Br  0.43252455  0.52546426  0.89626765    -0.03000
Br1095     Br  0.42173972  0.63566282  0.81499680    -0.00100
Br1096     Br  0.44918401  0.53012269  0.79372477    -0.04500
C1097       C  0.44504345  0.41272180  0.87930538    -0.11900
C1098       C  0.42816599  0.42479308  0.86811521     0.03600
C1099       C  0.42002507  0.41711713  0.84761224    -0.12400
C1100       C  0.42847165  0.39753994  0.83785790     0.18400
C1101       C  0.44474502  0.38503600  0.84939473    -0.09500
C1102       C  0.45263810  0.39251327  0.87007750    -0.02400
H1103       H  0.40746089  0.42680856  0.83890450     0.05000
C1104       C  0.42180176  0.39187524  0.81473448     0.20400
H1105       H  0.46580620  0.38320579  0.87829604     0.10100
C1106       C  0.42795319  0.40642635  0.79746507    -0.15800
C1107       C  0.42225458  0.40194648  0.77527581     0.03100
C1108       C  0.41053373  0.38210268  0.76988224    -0.11100
C1109       C  0.40392168  0.36784013  0.78741228    -0.01100
C1110       C  0.40919098  0.37270961  0.80964460    -0.06300
H1111       H  0.43711229  0.42156021  0.80134186     0.06100
H1112       H  0.39449258  0.35279963  0.78388697     0.09500
Br1113     Br  0.45839321  0.35895494  0.83663620    -0.06000
Br1114     Br  0.41553027  0.45176133  0.88006199    -0.03000
Br1115     Br  0.42955150  0.42472521  0.75386739    -0.00100
Br1116     Br  0.39786009  0.35332261  0.83251838    -0.04500
C1117       C  0.28779716  0.05617836  0.39345651    -0.11900
C1118       C  0.30764267  0.05009112  0.38219672     0.03600
C1119       C  0.32447513  0.03846112  0.39362392    -0.12400
C1120       C  0.32190434  0.03277388  0.41618182     0.18400
C1121       C  0.30238898  0.03928375  0.42753362    -0.09500
C1122       C  0.28548284  0.05063528  0.41612650    -0.02400
H1123       H  0.33952351  0.03359620  0.38482451     0.05000
C1124       C  0.33986715  0.02052202  0.42791387     0.20400
H1125       H  0.27050964  0.05538110  0.42512060     0.10100
C1126       C  0.35879195  0.03225025  0.43504739    -0.15800
C1127       C  0.37501302  0.02184523  0.44825916     0.03100
C1128       C  0.37242031  0.99919954  0.45455774    -0.11100
C1129       C  0.35406421  0.98714870  0.44627360    -0.01100
C1130       C  0.33780703  0.99765717  0.43312580    -0.06300
H1131       H  0.36066192  0.04975254  0.43078073     0.06100
H1132       H  0.35184057  0.96975767  0.45080317     0.09500
Br1133     Br  0.29840098  0.03356034  0.45879896    -0.06000
Br1134     Br  0.31216584  0.05581173  0.35100698    -0.03000
Br1135     Br  0.40053861  0.03936685  0.45670179    -0.00100
Br1136     Br  0.31274083  0.98037963  0.42313580    -0.04500
C1137       C  0.91719841  0.87000159  0.26831662    -0.11900
C1138       C  0.90079770  0.87202346  0.28532602     0.03600
C1139       C  0.90710738  0.87874698  0.30679457    -0.12400
C1140       C  0.92942054  0.88357177  0.31178659     0.18400
C1141       C  0.94584657  0.88073684  0.29527586    -0.09500
C1142       C  0.93969370  0.87399408  0.27383826    -0.02400
H1143       H  0.89441510  0.88106346  0.31948594     0.05000
C1144       C  0.93508369  0.89359544  0.33354405     0.20400
H1145       H  0.95260310  0.87240429  0.26126425     0.10100
C1146       C  0.94617902  0.88078487  0.34970428    -0.15800
C1147       C  0.95413963  0.89070912  0.36931491     0.03100
C1148       C  0.95084519  0.91377140  0.37293178    -0.11100
C1149       C  0.93904279  0.92633862  0.35705920    -0.01100
C1150       C  0.93113241  0.91643664  0.33751135    -0.06300
H1151       H  0.94950533  0.86325895  0.34658214     0.06100
H1152       H  0.93670762  0.94413869  0.35949731     0.09500
Br1153     Br  0.97672771  0.88730786  0.30083762    -0.06000
Br1154     Br  0.86931685  0.86792295  0.28053857    -0.03000
Br1155     Br  0.97171381  0.87268240  0.38916247    -0.00100
Br1156     Br  0.91660415  0.93513948  0.31589987    -0.04500
C1157       C  0.05502528  0.87474064  0.53192676    -0.11900
C1158       C  0.04112059  0.85905040  0.54275987     0.03600
C1159       C  0.05002746  0.83898121  0.55072908    -0.12400
C1160       C  0.07280410  0.83406109  0.54830588     0.18400
C1161       C  0.08694064  0.85014626  0.53840348    -0.09500
C1162       C  0.07802371  0.87036180  0.53044401    -0.02400
H1163       H  0.03896018  0.82682821  0.55831879     0.05000
C1164       C  0.08096897  0.81160982  0.55521619     0.20400
H1165       H  0.08886969  0.88207474  0.52191249     0.10100
C1166       C  0.08888000  0.79662405  0.53896793    -0.15800
C1167       C  0.09494938  0.77468887  0.54463055     0.03100
C1168       C  0.09301717  0.76733155  0.56693293    -0.11100
C1169       C  0.08559252  0.78249837  0.58322199    -0.01100
C1170       C  0.07944248  0.80434837  0.57754158    -0.06300
H1171       H  0.09006942  0.80193985  0.52172596     0.06100
H1172       H  0.08410910  0.77718745  0.60044543     0.09500
Br1173     Br  0.11837671  0.84503781  0.53490140    -0.06000
Br1174     Br  0.00966078  0.86401364  0.54679801    -0.03000
Br1175     Br  0.10679691  0.75595119  0.52146644    -0.00100
Br1176     Br  0.06918053  0.82367229  0.60095904    -0.04500
C1177       C  0.09564585  0.99454817  0.53333719    -0.11900
C1178       C  0.09832239  0.01799838  0.53201763     0.03600
C1179       C  0.11510789  0.02859371  0.54433761    -0.12400
C1180       C  0.12921873  0.01629505  0.55834635     0.18400
C1181       C  0.12556899  0.99320022  0.56098487    -0.09500
C1182       C  0.10886848  0.98249040  0.54853001    -0.02400
H1183       H  0.11749436  0.04646715  0.54261742     0.05000
C1184       C  0.14851621  0.02767180  0.56878435     0.20400
H1185       H  0.10694646  0.96454120  0.54995459     0.10100
C1186       C  0.14639474  0.03711182  0.59007304    -0.15800
C1187       C  0.16416440  0.04889396  0.59978905     0.03100
C1188       C  0.18460289  0.05124994  0.58812372    -0.11100
C1189       C  0.18669000  0.04139460  0.56693559    -0.01100
C1190       C  0.16882379  0.02992051  0.55717968    -0.06300
H1191       H  0.13080231  0.03540928  0.59909960     0.06100
H1192       H  0.20211114  0.04312395  0.55762494     0.09500
Br1193     Br  0.14372012  0.97558072  0.58060596    -0.06000
Br1194     Br  0.07914067  0.03655416  0.51424459    -0.03000
Br1195     Br  0.15967221  0.06042914  0.62934574    -0.00100
Br1196     Br  0.17263357  0.01805598  0.52767460    -0.04500
C1197       C  0.09937966  0.03122831  0.41977134    -0.11900
C1198       C  0.11255157  0.04645171  0.43194610     0.03600
C1199       C  0.13245813  0.05457997  0.42285063    -0.12400
C1200       C  0.13961033  0.04773241  0.40164003     0.18400
C1201       C  0.12585421  0.03342962  0.38895525    -0.09500
C1202       C  0.10580554  0.02543724  0.39800871    -0.02400
H1203       H  0.14285543  0.06560549  0.43274078     0.05000
C1204       C  0.16232820  0.05399964  0.39409928     0.20400
H1205       H  0.09589902  0.01361856  0.38853615     0.10100
C1206       C  0.17852251  0.03719703  0.39177808    -0.15800
C1207       C  0.20055551  0.04240826  0.38600261     0.03100
C1208       C  0.20681731  0.06492492  0.38272218    -0.11100
C1209       C  0.19047974  0.08169777  0.38474028    -0.01100
C1210       C  0.16844122  0.07642850  0.39047088    -0.06300
H1211       H  0.17398963  0.01988806  0.39458603     0.06100
H1212       H  0.19493190  0.09906202  0.38216874     0.09500
Br1213     Br  0.13414093  0.02375129  0.35956624    -0.06000
Br1214     Br  0.10421358  0.05640503  0.46117417    -0.03000
Br1215     Br  0.22080581  0.01789636  0.38158927    -0.00100
Br1216     Br  0.14724077  0.10037983  0.39277467    -0.04500
C1217       C  0.88677420  0.78736410  0.54953648    -0.11900
C1218       C  0.88919317  0.78589060  0.52607670     0.03600
C1219       C  0.89953556  0.80325166  0.51421829    -0.12400
C1220       C  0.90745759  0.82232219  0.52523133     0.18400
C1221       C  0.90408615  0.82435430  0.54839712    -0.09500
C1222       C  0.89379712  0.80702004  0.56032621    -0.02400
H1223       H  0.90180275  0.80167855  0.49634893     0.05000
C1224       C  0.92081707  0.83900752  0.51267623     0.20400
H1225       H  0.89192067  0.80865314  0.57823159     0.10100
C1226       C  0.91024948  0.85550770  0.49979825    -0.15800
C1227       C  0.92275786  0.87168937  0.48817886     0.03100
C1228       C  0.94642541  0.87148353  0.48937614    -0.11100
C1229       C  0.95673980  0.85452673  0.50208219    -0.01100
C1230       C  0.94425066  0.83846065  0.51349868    -0.06300
H1231       H  0.89217506  0.85595069  0.49900199     0.06100
H1232       H  0.97477722  0.85356598  0.50312485     0.09500
Br1233     Br  0.91381292  0.85033029  0.56443526    -0.06000
Br1234     Br  0.87789495  0.76119000  0.50902269    -0.03000
Br1235     Br  0.90628269  0.89386581  0.47190385    -0.00100
Br1236     Br  0.95999441  0.81578891  0.52983704    -0.04500
C1237       C  0.04949737  0.58740452  0.19086123    -0.11900
C1238       C  0.02596488  0.58522397  0.19185453     0.03600
C1239       C  0.01450821  0.57431124  0.17461578    -0.12400
C1240       C  0.02603522  0.56550533  0.15626307     0.18400
C1241       C  0.04930005  0.56826313  0.15486027    -0.09500
C1242       C  0.06079074  0.57915020  0.17200441    -0.02400
H1243       H  0.99654666  0.57235247  0.17569432     0.05000
C1244       C  0.01378567  0.55220395  0.13947720     0.20400
H1245       H  0.07876843  0.58040175  0.17090140     0.10100
C1246       C  0.00404374  0.56277638  0.12102123    -0.15800
C1247       C  0.99276559  0.55037328  0.10463610     0.03100
C1248       C  0.99097316  0.52683869  0.10673540    -0.11100
C1249       C  0.00085085  0.51647626  0.12541922    -0.01100
C1250       C  0.01213381  0.52889504  0.14161391    -0.06300
H1251       H  0.00550118  0.58073667  0.11921063     0.06100
H1252       H  0.99975460  0.49853418  0.12759285     0.09500
Br1253     Br  0.06613140  0.55665833  0.13020386    -0.06000
Br1254     Br  0.00830384  0.59729288  0.21574666    -0.03000
Br1255     Br  0.98148355  0.56664147  0.07942875    -0.00100
Br1256     Br  0.02520828  0.51331506  0.16639217    -0.04500
C1257       C  0.60063524  0.48285819  0.44883582    -0.11900
C1258       C  0.60990289  0.49183207  0.42896681     0.03600
C1259       C  0.62596374  0.47961606  0.41692396    -0.12400
C1260       C  0.63311209  0.45845503  0.42411111     0.18400
C1261       C  0.62394920  0.44948674  0.44378984    -0.09500
C1262       C  0.60787048  0.46150913  0.45576327    -0.02400
H1263       H  0.63319515  0.48682484  0.40199133     0.05000
C1264       C  0.65122669  0.44663540  0.41184869     0.20400
H1265       H  0.60129201  0.45413382  0.47090923     0.10100
C1266       C  0.67297936  0.45514773  0.41274561    -0.15800
C1267       C  0.69093411  0.44383338  0.40280166     0.03100
C1268       C  0.68736871  0.42303212  0.39177646    -0.11100
C1269       C  0.66520442  0.41514727  0.39018544    -0.01100
C1270       C  0.64731400  0.42678452  0.39988527    -0.06300
H1271       H  0.67606513  0.47066950  0.42154554     0.06100
H1272       H  0.66163557  0.39966806  0.38153676     0.09500
Br1273     Br  0.63386485  0.42144803  0.45585126    -0.06000
Br1274     Br  0.60262838  0.52102508  0.41778463    -0.03000
Br1275     Br  0.71933005  0.45870463  0.40496120    -0.00100
Br1276     Br  0.61770441  0.41515449  0.39603441    -0.04500
C1277       C  0.02051387  0.60420744  0.49958958    -0.11900
C1278       C  0.01228432  0.62069327  0.51436355     0.03600
C1279       C  0.02691331  0.63571648  0.52449983    -0.12400
C1280       C  0.04981388  0.63509899  0.51997541     0.18400
C1281       C  0.05815256  0.61915409  0.50480574    -0.09500
C1282       C  0.04348947  0.60388123  0.49465606    -0.02400
H1283       H  0.02032919  0.64821771  0.53582722     0.05000
C1284       C  0.06428925  0.65152032  0.53143409     0.20400
H1285       H  0.05011338  0.59143578  0.48331206     0.10100
C1286       C  0.06852005  0.64877899  0.55425467    -0.15800
C1287       C  0.07893226  0.66561904  0.56670178     0.03100
C1288       C  0.08552548  0.68580138  0.55615158    -0.11100
C1289       C  0.08168662  0.68816685  0.53309821    -0.01100
C1290       C  0.07105770  0.67134484  0.52081608    -0.06300
H1291       H  0.06278301  0.63378794  0.56263936     0.06100
H1292       H  0.08646546  0.70343075  0.52463102     0.09500
Br1293     Br  0.08940224  0.61735405  0.49804842    -0.06000
Br1294     Br  0.98105074  0.62477362  0.52023896    -0.03000
Br1295     Br  0.08120073  0.66049417  0.59829987    -0.00100
Br1296     Br  0.06458098  0.67683567  0.48995938    -0.04500
C1297       C  0.90936051  0.59595239  0.53029277    -0.11900
C1298       C  0.88699655  0.60339516  0.52811633     0.03600
C1299       C  0.88105207  0.62478489  0.53559196    -0.12400
C1300       C  0.89691103  0.63894363  0.54538528     0.18400
C1301       C  0.91879334  0.63115157  0.54871188    -0.09500
C1302       C  0.92480748  0.60985305  0.54127411    -0.02400
H1303       H  0.86408170  0.63064086  0.53327118     0.05000
C1304       C  0.89060386  0.66200278  0.55159399     0.20400
H1305       H  0.94187212  0.60434760  0.54360140     0.10100
C1306       C  0.88839446  0.66756184  0.57417678    -0.15800
C1307       C  0.88367133  0.68950390  0.58074339     0.03100
C1308       C  0.88068991  0.70637389  0.56442531    -0.11100
C1309       C  0.88300018  0.70065997  0.54178483    -0.01100
C1310       C  0.88793303  0.67873641  0.53531394    -0.06300
H1311       H  0.89087477  0.65481770  0.58678687     0.06100
H1312       H  0.88088390  0.71326838  0.52900529     0.09500
Br1313     Br  0.94132089  0.64957140  0.56218897    -0.06000
Br1314     Br  0.86398116  0.58614144  0.51390139    -0.03000
Br1315     Br  0.88343984  0.69536414  0.61226123    -0.00100
Br1316     Br  0.89173988  0.67259459  0.50411505    -0.04500
C1317       C  0.99698748  0.44800645  0.37717895    -0.11900
C1318       C  0.98452775  0.43782025  0.35991349     0.03600
C1319       C  0.99530848  0.42402912  0.34443703    -0.12400
C1320       C  0.01831533  0.41995297  0.34588114     0.18400
C1321       C  0.03058844  0.42925299  0.36360842    -0.09500
C1322       C  0.01990011  0.44310771  0.37904864    -0.02400
H1323       H  0.98584518  0.41707633  0.33067754     0.05000
C1324       C  0.02953398  0.40831256  0.32727714     0.20400
H1325       H  0.02973327  0.45063308  0.39223379     0.10100
C1326       C  0.03117796  0.41932663  0.30670727    -0.15800
C1327       C  0.04198531  0.40935179  0.28860639     0.03100
C1328       C  0.05160525  0.38791960  0.29103899    -0.11100
C1329       C  0.04978092  0.37685209  0.31165734    -0.01100
C1330       C  0.03858496  0.38674703  0.32962122    -0.06300
H1331       H  0.02421346  0.43594520  0.30482315     0.06100
H1332       H  0.05675968  0.36026488  0.31369287     0.09500
Br1333     Br  0.06224742  0.42498253  0.36648182    -0.06000
Br1334     Br  0.95334658  0.44359224  0.35504451    -0.03000
Br1335     Br  0.04407348  0.42656246  0.26160726    -0.00100
Br1336     Br  0.03530767  0.36994322  0.35668819    -0.04500
C1337       C  0.02529480  0.56222562  0.37913473    -0.11900
C1338       C  0.03593954  0.58327914  0.37682043     0.03600
C1339       C  0.04309094  0.59050904  0.35570405    -0.12400
C1340       C  0.03964658  0.57733266  0.33666944     0.18400
C1341       C  0.02939659  0.55633474  0.33891800    -0.09500
C1342       C  0.02242283  0.54897420  0.35989002    -0.02400
H1343       H  0.05125205  0.60659107  0.35407823     0.05000
C1344       C  0.04739148  0.58530366  0.31461973     0.20400
H1345       H  0.01424239  0.53286142  0.36095144     0.10100
C1346       C  0.07020621  0.58424748  0.30948598    -0.15800
C1347       C  0.07796674  0.58957009  0.28807750     0.03100
C1348       C  0.06269962  0.59631459  0.27138259    -0.11100
C1349       C  0.03990794  0.59789267  0.27682502    -0.01100
C1350       C  0.03221362  0.59253648  0.29820871    -0.06300
H1351       H  0.08193535  0.57846071  0.32198465     0.06100
H1352       H  0.02796580  0.60320892  0.26433740     0.09500
Br1353     Br  0.02464232  0.53698458  0.31379265    -0.06000
Br1354     Br  0.04173074  0.60295523  0.40147805    -0.03000
Br1355     Br  0.10920042  0.58513830  0.28228557    -0.00100
Br1356     Br  0.00081425  0.59507416  0.30418389    -0.04500
C1357       C  0.86638744  0.47797532  0.52332701    -0.11900
C1358       C  0.86431935  0.48386248  0.54609086     0.03600
C1359       C  0.84691779  0.47476951  0.55897309    -0.12400
C1360       C  0.83143548  0.45987771  0.54952972     0.18400
C1361       C  0.83340225  0.45422036  0.52683005    -0.09500
C1362       C  0.85072275  0.46314510  0.51404729    -0.02400
H1363       H  0.84561982  0.47908235  0.57648162     0.05000
C1364       C  0.81368734  0.44959517  0.56340984     0.20400
H1365       H  0.85184564  0.45849908  0.49660421     0.10100
C1366       C  0.79138540  0.45565032  0.55983220    -0.15800
C1367       C  0.77382200  0.44379897  0.56980863     0.03100
C1368       C  0.77849657  0.42504297  0.58369164    -0.11100
C1369       C  0.80109062  0.42011563  0.58828710    -0.01100
C1370       C  0.81850618  0.43217916  0.57837171    -0.06300
H1371       H  0.78760431  0.46927255  0.54852269     0.06100
H1372       H  0.80542523  0.40630853  0.59913326     0.09500
Br1373     Br  0.81323066  0.43374820  0.51258837    -0.06000
Br1374     Br  0.88543228  0.50293396  0.56085639    -0.03000
Br1375     Br  0.74432916  0.45447130  0.56277800    -0.00100
Br1376     Br  0.84865625  0.42330250  0.58463315    -0.04500
C1377       C  0.87745974  0.44406060  0.41274763    -0.11900
C1378       C  0.87046285  0.44558050  0.39021425     0.03600
C1379       C  0.84971661  0.43677687  0.38384421    -0.12400
C1380       C  0.83559156  0.42657698  0.39950441     0.18400
C1381       C  0.84295368  0.42411399  0.42165179    -0.09500
C1382       C  0.86365481  0.43276826  0.42805674    -0.02400
H1383       H  0.84415200  0.43868656  0.36674609     0.05000
C1384       C  0.81264000  0.42006930  0.39295389     0.20400
H1385       H  0.86864217  0.43127172  0.44537038     0.10100
C1386       C  0.80665245  0.39742102  0.39255831    -0.15800
C1387       C  0.78464355  0.39088860  0.38804935     0.03100
C1388       C  0.76818940  0.40723931  0.38343192    -0.11100
C1389       C  0.77436046  0.42988780  0.38360279    -0.01100
C1390       C  0.79629572  0.43636772  0.38836284    -0.06300
H1391       H  0.81905593  0.38479941  0.39639179     0.06100
H1392       H  0.76205178  0.44266433  0.38005101     0.09500
Br1393     Br  0.82462286  0.41061983  0.44422643    -0.06000
Br1394     Br  0.88708972  0.46121936  0.36766771    -0.03000
Br1395     Br  0.77791250  0.35958268  0.39046981    -0.00100
Br1396     Br  0.80284104  0.46775252  0.38955065    -0.04500
C1397       C  0.28775354  0.91798602  0.07841971    -0.11900
C1398       C  0.28734454  0.94158063  0.07695362     0.03600
C1399       C  0.30422975  0.95289822  0.06539062    -0.12400
C1400       C  0.32178060  0.94118545  0.05528756     0.18400
C1401       C  0.32286427  0.91777881  0.05764663    -0.09500
C1402       C  0.30594330  0.90638346  0.06913368    -0.02400
H1403       H  0.30351979  0.97094573  0.06402322     0.05000
C1404       C  0.33818599  0.95363283  0.04157725     0.20400
H1405       H  0.30674839  0.88833423  0.07034037     0.10100
C1406       C  0.35441744  0.96704130  0.05193672    -0.15800
C1407       C  0.37007487  0.97902930  0.03921478     0.03100
C1408       C  0.36943181  0.97782494  0.01571228    -0.11100
C1409       C  0.35295967  0.96456146  0.00548388    -0.01100
C1410       C  0.33739633  0.95265680  0.01814093    -0.06300
H1411       H  0.35512967  0.96786888  0.06998025     0.06100
H1412       H  0.35214399  0.96347307  0.98744861     0.09500
Br1413     Br  0.34712335  0.90076237  0.04540546    -0.06000
Br1414     Br  0.26495635  0.95947282  0.09136851    -0.03000
Br1415     Br  0.39292358  0.99524176  0.05473744    -0.00100
Br1416     Br  0.31509967  0.93560233  0.00263030    -0.04500
C1417       C  0.92126661  0.08553421  0.28836217    -0.11900
C1418       C  0.94493644  0.08521471  0.28743519     0.03600
C1419       C  0.95721889  0.07462306  0.30432230    -0.12400
C1420       C  0.94647804  0.06419081  0.32228449     0.18400
C1421       C  0.92301863  0.06514578  0.32371294    -0.09500
C1422       C  0.91066297  0.07579749  0.30693693    -0.02400
H1423       H  0.97528166  0.07416691  0.30323083     0.05000
C1424       C  0.95991810  0.05140240  0.33871037     0.20400
H1425       H  0.89260698  0.07583799  0.30812805     0.10100
C1426       C  0.97217914  0.06265466  0.35520340    -0.15800
C1427       C  0.98463785  0.05081911  0.37122406     0.03100
C1428       C  0.98485073  0.02711168  0.37094441    -0.11100
C1429       C  0.97295485  0.01611039  0.35383847    -0.01100
C1430       C  0.96076867  0.02795726  0.33785948    -0.06300
H1431       H  0.97183547  0.08075234  0.35576490     0.06100
H1432       H  0.97309842  0.99803894  0.35273674     0.09500
Br1433     Br  0.90715163  0.05176822  0.34812167    -0.06000
Br1434     Br  0.96178367  0.09947340  0.26414890    -0.03000
Br1435     Br  0.00017898  0.06825234  0.39316817    -0.00100
Br1436     Br  0.94583852  0.01134439  0.31485900    -0.04500
C1437       C  0.13544395  0.26034524  0.86815511    -0.11900
C1438       C  0.13147217  0.27527587  0.85036172     0.03600
C1439       C  0.14555428  0.27503653  0.83163079    -0.12400
C1440       C  0.16359622  0.26007085  0.83027719     0.18400
C1441       C  0.16818079  0.24597897  0.84851677    -0.09500
C1442       C  0.15414931  0.24618172  0.86714750    -0.02400
H1443       H  0.14192519  0.28596700  0.81767977     0.05000
C1444       C  0.17663833  0.25830315  0.80930594     0.20400
H1445       H  0.15738895  0.23453660  0.88061826     0.10100
C1446       C  0.19910639  0.26486430  0.80902682    -0.15800
C1447       C  0.21233469  0.26195866  0.78993981     0.03100
C1448       C  0.20291914  0.25259687  0.77033611    -0.11100
C1449       C  0.18027048  0.24626274  0.77073257    -0.01100
C1450       C  0.16722492  0.24894295  0.78992621    -0.06300
H1451       H  0.20654958  0.27177756  0.82399052     0.06100
H1452       H  0.17260374  0.23901482  0.75605023     0.09500
Br1453     Br  0.19232449  0.22485697  0.84809832    -0.06000
Br1454     Br  0.10588204  0.29456698  0.84959153    -0.03000
Br1455     Br  0.24338099  0.26955259  0.79282235    -0.00100
Br1456     Br  0.13693216  0.23843920  0.78920313    -0.04500
C1457       C  0.08259288  0.28704337  0.92656254    -0.11900
C1458       C  0.09407332  0.30630618  0.93403599     0.03600
C1459       C  0.08279060  0.32252717  0.94667283    -0.12400
C1460       C  0.06014020  0.31997888  0.95209514     0.18400
C1461       C  0.04866601  0.30085798  0.94466857    -0.09500
C1462       C  0.05989729  0.28458155  0.93217579    -0.02400
H1463       H  0.09175052  0.33717917  0.95239139     0.05000
C1464       C  0.04850069  0.33766868  0.96495778     0.20400
H1465       H  0.05075717  0.26994708  0.92670137     0.10100
C1466       C  0.03470187  0.35272790  0.95357777    -0.15800
C1467       C  0.02255289  0.36902070  0.96512171     0.03100
C1468       C  0.02418202  0.37059997  0.98864374    -0.11100
C1469       C  0.03857189  0.35590295  0.99996304    -0.01100
C1470       C  0.05052338  0.33939729  0.98831807    -0.06300
H1471       H  0.03318752  0.35161942  0.93559282     0.06100
H1472       H  0.03984588  0.35666538  0.01797835     0.09500
Br1473     Br  0.01769757  0.29615477  0.95151160    -0.06000
Br1474     Br  0.12540689  0.31079945  0.92894150    -0.03000
Br1475     Br  0.00449298  0.38897597  0.94759927    -0.00100
Br1476     Br  0.06840963  0.31872817  0.00500142    -0.04500
C1477       C  0.10257478  0.97857445  0.95603182    -0.11900
C1478       C  0.10449016  0.95507570  0.95360418     0.03600
C1479       C  0.12143122  0.94606534  0.94034690    -0.12400
C1480       C  0.13656468  0.95991348  0.92919253     0.18400
C1481       C  0.13412841  0.98325533  0.93059015    -0.09500
C1482       C  0.11724951  0.99242029  0.94395349    -0.02400
H1483       H  0.12297320  0.92807179  0.93889398     0.05000
C1484       C  0.15479333  0.94945287  0.91632811     0.20400
H1485       H  0.11602139  0.01043120  0.94536331     0.10100
C1486       C  0.14986574  0.93907865  0.89598692    -0.15800
C1487       C  0.16643039  0.92788213  0.88387734     0.03100
C1488       C  0.18856028  0.92695298  0.89222619    -0.11100
C1489       C  0.19333287  0.93750101  0.91267701    -0.01100
C1490       C  0.17666125  0.94846832  0.92478869    -0.06300
H1491       H  0.13296725  0.93965889  0.88953342     0.06100
H1492       H  0.21002026  0.93677658  0.91962456     0.09500
Br1493     Br  0.15349179  0.00311326  0.91453569    -0.06000
Br1494     Br  0.08429194  0.93407485  0.96714211    -0.03000
Br1495     Br  0.15748356  0.91513956  0.85583900    -0.00100
Br1496     Br  0.18423996  0.96086036  0.95334196    -0.04500
C1497       C  0.09858589  0.95144428  0.06877339    -0.11900
C1498       C  0.10811085  0.95430196  0.09019981     0.03600
C1499       C  0.12877933  0.94440133  0.09521283    -0.12400
C1500       C  0.14020089  0.93156445  0.07928712     0.18400
C1501       C  0.13034811  0.92789090  0.05834219    -0.09500
C1502       C  0.10981592  0.93778249  0.05324140    -0.02400
H1503       H  0.13636000  0.94735583  0.11135898     0.05000
C1504       C  0.16311896  0.92359112  0.08404632     0.20400
H1505       H  0.10284747  0.93517114  0.03676272     0.10100
C1506       C  0.16652424  0.90186412  0.09202448    -0.15800
C1507       C  0.18815045  0.89360941  0.09577738     0.03100
C1508       C  0.20703144  0.90744055  0.09166461    -0.11100
C1509       C  0.20327698  0.92924997  0.08359750    -0.01100
C1510       C  0.18168608  0.93728055  0.07975963    -0.06300
H1511       H  0.15224795  0.89113594  0.09499903     0.06100
H1512       H  0.21719535  0.94027380  0.08017985     0.09500
Br1513     Br  0.14492463  0.91037926  0.03579842    -0.06000
Br1514     Br  0.09497565  0.97299310  0.11268586    -0.03000
Br1515     Br  0.19007604  0.86296430  0.10525070    -0.00100
Br1516     Br  0.17830860  0.96696662  0.06810886    -0.04500
C1517       C  0.94884193  0.10405877  0.97724313    -0.11900
C1518       C  0.92581239  0.10422735  0.98253234     0.03600
C1519       C  0.91156700  0.11988734  0.97233195    -0.12400
C1520       C  0.91993987  0.13533874  0.95681188     0.18400
C1521       C  0.94282254  0.13509585  0.95153098    -0.09500
C1522       C  0.95696458  0.11955788  0.96160265    -0.02400
H1523       H  0.89391217  0.11985057  0.97630328     0.05000
C1524       C  0.90503761  0.15179397  0.94596235     0.20400
H1525       H  0.97456386  0.11981851  0.95736382     0.10100
C1526       C  0.90102604  0.17232350  0.95645282    -0.15800
C1527       C  0.89126654  0.19012674  0.94476956     0.03100
C1528       C  0.88594651  0.18767093  0.92184277    -0.11100
C1529       C  0.88826236  0.16635752  0.91209025    -0.01100
C1530       C  0.89757656  0.14853247  0.92398126    -0.06300
H1531       H  0.90627399  0.17476470  0.97358127     0.06100
H1532       H  0.88378327  0.16367520  0.89479139     0.09500
Br1533     Br  0.95561106  0.15595357  0.93078173    -0.06000
Br1534     Br  0.91268926  0.08264618  0.00226094    -0.03000
Br1535     Br  0.88533746  0.21688140  0.96147623    -0.00100
Br1536     Br  0.90094631  0.12027935  0.90922299    -0.04500
C1537       C  0.09160902  0.20644770  0.91130826    -0.11900
C1538       C  0.09749761  0.18832881  0.89705522     0.03600
C1539       C  0.09120384  0.16650916  0.90265010    -0.12400
C1540       C  0.07900710  0.16213031  0.92203307     0.18400
C1541       C  0.07324917  0.17986367  0.93630363    -0.09500
C1542       C  0.07943688  0.20171565  0.93086569    -0.02400
H1543       H  0.09571806  0.15281519  0.89169934     0.05000
C1544       C  0.07285276  0.13889079  0.92749356     0.20400
H1545       H  0.07486906  0.21501682  0.94224380     0.10100
C1546       C  0.08916753  0.12446833  0.93601907    -0.15800
C1547       C  0.08342024  0.10330656  0.94416651     0.03100
C1548       C  0.06075368  0.09642086  0.94403069    -0.11100
C1549       C  0.04481126  0.11039927  0.93381638    -0.01100
C1550       C  0.05072603  0.13137572  0.92546977    -0.06300
H1551       H  0.10633747  0.13008634  0.93717728     0.06100
H1552       H  0.02745798  0.10533478  0.93294452     0.09500
Br1553     Br  0.05753418  0.17490528  0.96379639    -0.06000
Br1554     Br  0.11342615  0.19134075  0.86931932    -0.03000
Br1555     Br  0.10729665  0.08583194  0.95663155    -0.00100
Br1556     Br  0.02798074  0.14948280  0.91195590    -0.04500
C1557       C  0.98082199  0.95804317  0.11039805    -0.11900
C1558       C  0.96295029  0.96306580  0.12505996     0.03600
C1559       C  0.95503158  0.94677045  0.13976123    -0.12400
C1560       C  0.96470037  0.92545424  0.14067512     0.18400
C1561       C  0.98243376  0.92028991  0.12613036    -0.09500
C1562       C  0.99037523  0.93653206  0.11121915    -0.02400
H1563       H  0.94140953  0.95089987  0.15094721     0.05000
C1564       C  0.95613175  0.90938257  0.15746264     0.20400
H1565       H  0.00403562  0.93225988  0.10015058     0.10100
C1566       C  0.94461665  0.89014220  0.15060478    -0.15800
C1567       C  0.93364763  0.87642728  0.16615516     0.03100
C1568       C  0.93354845  0.88231215  0.18904569    -0.11100
C1569       C  0.94632315  0.90089045  0.19582334    -0.01100
C1570       C  0.95759065  0.91421306  0.18037474    -0.06300
H1571       H  0.94376593  0.88603104  0.13302016     0.06100
H1572       H  0.94709284  0.90564547  0.21324114     0.09500
Br1573     Br  0.99680982  0.89163769  0.12658313    -0.06000
Br1574     Br  0.94936735  0.99212698  0.12727222    -0.03000
Br1575     Br  0.92011583  0.84961776  0.15498396    -0.00100
Br1576     Br  0.97471141  0.93899694  0.19143762    -0.04500
C1577       C  0.90917696  0.09849832  0.20781710    -0.11900
C1578       C  0.90036890  0.11145750  0.19001843     0.03600
C1579       C  0.90681886  0.10691761  0.16797114    -0.12400
C1580       C  0.92224950  0.08997013  0.16322420     0.18400
C1581       C  0.93232669  0.07832024  0.18097313    -0.09500
C1582       C  0.92561978  0.08243742  0.20291277    -0.02400
H1583       H  0.89962310  0.11652853  0.15443845     0.05000
C1584       C  0.92777069  0.08438624  0.13979142     0.20400
H1585       H  0.93312564  0.07267375  0.21615426     0.10100
C1586       C  0.94031909  0.09938625  0.12689853    -0.15800
C1587       C  0.94885107  0.09299875  0.10604559     0.03100
C1588       C  0.94504228  0.07107738  0.09800806    -0.11100
C1589       C  0.93105149  0.05678495  0.11028635    -0.01100
C1590       C  0.92215339  0.06339699  0.13079738    -0.06300
H1591       H  0.94438657  0.11572775  0.13354873     0.06100
H1592       H  0.92742727  0.04014317  0.10413908     0.09500
Br1593     Br  0.95568022  0.05684236  0.17609519    -0.06000
Br1594     Br  0.88049545  0.13633819  0.19435153    -0.03000
Br1595     Br  0.96723338  0.11426478  0.09058309    -0.00100
Br1596     Br  0.90276378  0.04302216  0.14621266    -0.04500
C1597       C  0.19407054  0.72059131  0.71769426    -0.11900
C1598       C  0.18761276  0.73905400  0.70453267     0.03600
C1599       C  0.17331735  0.73594440  0.68643516    -0.12400
C1600       C  0.16510919  0.71469094  0.68103734     0.18400
C1601       C  0.17192928  0.69611109  0.69378066    -0.09500
C1602       C  0.18639161  0.69916230  0.71193242    -0.02400
H1603       H  0.16868121  0.75023515  0.67632740     0.05000
C1604       C  0.15023119  0.71265442  0.66143022     0.20400
H1605       H  0.19121831  0.68484278  0.72189258     0.10100
C1606       C  0.15801210  0.70174489  0.64220734    -0.15800
C1607       C  0.14607418  0.70296190  0.62215141     0.03100
C1608       C  0.12625550  0.71564088  0.62108438    -0.11100
C1609       C  0.11804244  0.72578957  0.64051316    -0.01100
C1610       C  0.12968722  0.72413456  0.66064852    -0.06300
H1611       H  0.17390554  0.69308439  0.64255812     0.06100
H1612       H  0.10257326  0.73518757  0.63997259     0.09500
Br1613     Br  0.16121520  0.66654359  0.68762814    -0.06000
Br1614     Br  0.19882180  0.76873730  0.70937030    -0.03000
Br1615     Br  0.15859418  0.68876740  0.59630974    -0.00100
Br1616     Br  0.11695680  0.73788475  0.68665528    -0.04500
C1617       C  0.21306755  0.76363008  0.78461749    -0.11900
C1618       C  0.22102671  0.76510664  0.80681906     0.03600
C1619       C  0.21884098  0.78517483  0.81860841    -0.12400
C1620       C  0.20866257  0.80383259  0.80881929     0.18400
C1621       C  0.19966874  0.80210335  0.78727052    -0.09500
C1622       C  0.20181474  0.78214515  0.77542475    -0.02400
H1623       H  0.22564434  0.78643485  0.83531587     0.05000
C1624       C  0.20974467  0.82554081  0.82034251     0.20400
H1625       H  0.19526078  0.78147056  0.75861924     0.10100
C1626       C  0.22474459  0.84160964  0.81234597    -0.15800
C1627       C  0.22757166  0.86189522  0.82344549     0.03100
C1628       C  0.21517132  0.86635315  0.84300000    -0.11100
C1629       C  0.19953431  0.85054315  0.85052289    -0.01100
C1630       C  0.19690461  0.83013164  0.83944873    -0.06300
H1631       H  0.23455648  0.83817658  0.79753238     0.06100
H1632       H  0.18993722  0.85370194  0.86552744     0.09500
Br1633     Br  0.18472101  0.82676249  0.77322978    -0.06000
Br1634     Br  0.23452435  0.74052079  0.82242421    -0.03000
Br1635     Br  0.24816625  0.88292545  0.81061576    -0.00100
Br1636     Br  0.17585724  0.80895409  0.85105394    -0.04500
C1637       C  0.26023734  0.69983402  0.76235946    -0.11900
C1638       C  0.26263195  0.67786099  0.75390532     0.03600
C1639       C  0.28333423  0.66704082  0.75522428    -0.12400
C1640       C  0.30169301  0.67745101  0.76529804     0.18400
C1641       C  0.29906026  0.69864698  0.77498609    -0.09500
C1642       C  0.27852377  0.70967545  0.77343943    -0.02400
H1643       H  0.28522178  0.65049948  0.74809925     0.05000
C1644       C  0.32383815  0.66670576  0.76394175     0.20400
H1645       H  0.27712560  0.72632297  0.78040552     0.10100
C1646       C  0.33806619  0.67265343  0.74639606    -0.15800
C1647       C  0.35867795  0.66206615  0.74353615     0.03100
C1648       C  0.36544726  0.64511263  0.75860572    -0.11100
C1649       C  0.35140292  0.63982144  0.77669193    -0.01100
C1650       C  0.33065210  0.65032303  0.77929353    -0.06300
H1651       H  0.33292309  0.68542919  0.73464598     0.06100
H1652       H  0.35613416  0.62683495  0.78836713     0.09500
Br1653     Br  0.32323240  0.71319310  0.79016678    -0.06000
Br1654     Br  0.23832540  0.66114428  0.74130207    -0.03000
Br1655     Br  0.37667809  0.67209716  0.71890990    -0.00100
Br1656     Br  0.31182484  0.64141357  0.80359439    -0.04500
C1657       C  0.72313750  0.18773397  0.71154220    -0.11900
C1658       C  0.71186382  0.18402968  0.69106741     0.03600
C1659       C  0.69255516  0.17077501  0.69055021    -0.12400
C1660       C  0.68433039  0.16078984  0.71002053     0.18400
C1661       C  0.69604983  0.16351563  0.73015495    -0.09500
C1662       C  0.71522093  0.17686050  0.73080944    -0.02400
H1663       H  0.68379465  0.16838209  0.67491475     0.05000
C1664       C  0.66304925  0.14827174  0.70940445     0.20400
H1665       H  0.72353051  0.17928034  0.74667688     0.10100
C1666       C  0.66336698  0.12494391  0.70704986    -0.15800
C1667       C  0.64360012  0.11252043  0.70879368     0.03100
C1668       C  0.62319399  0.12349290  0.71287274    -0.11100
C1669       C  0.62281468  0.14684691  0.71466478    -0.01100
C1670       C  0.64253597  0.15926944  0.71284067    -0.06300
H1671       H  0.67911032  0.11635212  0.70459699     0.06100
H1672       H  0.60721586  0.15538360  0.71807285     0.09500
Br1673     Br  0.68594588  0.14989847  0.75733581    -0.06000
Br1674     Br  0.72227197  0.19560513  0.66302175    -0.03000
Br1675     Br  0.64542115  0.08055694  0.70718364    -0.00100
Br1676     Br  0.64091322  0.19111189  0.71623343    -0.04500
C1677       C  0.78865619  0.21540966  0.75309625    -0.11900
C1678       C  0.79171503  0.23402554  0.76723979     0.03600
C1679       C  0.80626860  0.23254907  0.78533945    -0.12400
C1680       C  0.81810537  0.21283279  0.78968371     0.18400
C1681       C  0.81514171  0.19420499  0.77562772    -0.09500
C1682       C  0.80033682  0.19554183  0.75754419    -0.02400
H1683       H  0.80812923  0.24680099  0.79634956     0.05000
C1684       C  0.83231055  0.21202037  0.80982026     0.20400
H1685       H  0.79823618  0.18119474  0.74671564     0.10100
C1686       C  0.82511812  0.19953685  0.82826864    -0.15800
C1687       C  0.83595895  0.20131996  0.84887921     0.03100
C1688       C  0.85432504  0.21595404  0.85124165    -0.11100
C1689       C  0.86196358  0.22779877  0.83248562    -0.01100
C1690       C  0.85120519  0.22584776  0.81188866    -0.06300
H1691       H  0.81036138  0.18914152  0.82688310     0.06100
H1692       H  0.87624469  0.23882103  0.83389948     0.09500
Br1693     Br  0.83156261  0.16704864  0.78007730    -0.06000
Br1694     Br  0.77540919  0.26147410  0.76369553    -0.03000
Br1695     Br  0.82339805  0.18510771  0.87352099    -0.00100
Br1696     Br  0.86273042  0.24251496  0.78705879    -0.04500
C1697       C  0.75659024  0.35556160  0.62349537    -0.11900
C1698       C  0.77183565  0.35511791  0.64146936     0.03600
C1699       C  0.77422721  0.33553750  0.65414002    -0.12400
C1700       C  0.76158471  0.31643471  0.64914477     0.18400
C1701       C  0.74690996  0.31670750  0.63089760    -0.09500
C1702       C  0.74458430  0.33608673  0.61823408    -0.02400
H1703       H  0.78539866  0.33542431  0.66835772     0.05000
C1704       C  0.76249738  0.29673890  0.66385391     0.20400
H1705       H  0.73287480  0.33607485  0.60446512     0.10100
C1706       C  0.74612625  0.29433516  0.68041807    -0.15800
C1707       C  0.74499112  0.27486912  0.69324184     0.03100
C1708       C  0.76048161  0.25756939  0.68960363    -0.11100
C1709       C  0.77718658  0.26015812  0.67340815    -0.01100
C1710       C  0.77814608  0.27954678  0.66037450    -0.06300
H1711       H  0.73395542  0.30748219  0.68306449     0.06100
H1712       H  0.78924914  0.24693438  0.67066729     0.09500
Br1713     Br  0.72903380  0.29120589  0.62322900    -0.06000
Br1714     Br  0.78808633  0.38112669  0.65083167    -0.03000
Br1715     Br  0.72229310  0.27272923  0.71576306    -0.00100
Br1716     Br  0.80043711  0.28160783  0.63748794    -0.04500
C1717       C  0.63019986  0.22179677  0.11229642    -0.11900
C1718       C  0.62423816  0.23358858  0.13179274     0.03600
C1719       C  0.63703984  0.23138916  0.15111300    -0.12400
C1720       C  0.65608419  0.21778657  0.15148682     0.18400
C1721       C  0.66158139  0.20518848  0.13233937    -0.09500
C1722       C  0.64855982  0.20718619  0.11292589    -0.02400
H1723       H  0.63235501  0.24072899  0.16588749     0.05000
C1724       C  0.67005685  0.21774017  0.17193044     0.20400
H1725       H  0.65329254  0.19801565  0.09806936     0.10100
C1726       C  0.67131463  0.19844161  0.18520270    -0.15800
C1727       C  0.68297346  0.19862209  0.20549965     0.03100
C1728       C  0.69344515  0.21841118  0.21286367    -0.11100
C1729       C  0.69207905  0.23769154  0.19964260    -0.01100
C1730       C  0.68069034  0.23745094  0.17928146    -0.06300
H1731       H  0.66279653  0.18334627  0.17998448     0.06100
H1732       H  0.70024341  0.25293696  0.20500739     0.09500
Br1733     Br  0.68739413  0.18620527  0.13150763    -0.06000
Br1734     Br  0.59844495  0.25264370  0.13322213    -0.03000
Br1735     Br  0.68274241  0.17195819  0.22329238    -0.00100
Br1736     Br  0.68064683  0.26435983  0.16181831    -0.04500
C1737       C  0.85135689  0.12082690  0.26149050    -0.11900
C1738       C  0.83232743  0.11465302  0.24905655     0.03600
C1739       C  0.81292882  0.12767310  0.25015114    -0.12400
C1740       C  0.81214518  0.14700060  0.26340817     0.18400
C1741       C  0.83065154  0.15233058  0.27693978    -0.09500
C1742       C  0.85001986  0.13919258  0.27598550    -0.02400
H1743       H  0.79862811  0.12313390  0.24004226     0.05000
C1744       C  0.79258140  0.16214538  0.26167351     0.20400
H1745       H  0.86453692  0.14415805  0.28556931     0.10100
C1746       C  0.77834665  0.16519374  0.28006314    -0.15800
C1747       C  0.75997191  0.17971644  0.27880778     0.03100
C1748       C  0.75536240  0.19112261  0.25872984    -0.11100
C1749       C  0.76951941  0.18786577  0.24032372    -0.01100
C1750       C  0.78810577  0.17378304  0.24172262    -0.06300
H1751       H  0.78156343  0.15623990  0.29544290     0.06100
H1752       H  0.76636060  0.19670215  0.22485685     0.09500
Br1753     Br  0.83102119  0.17850066  0.29541961    -0.06000
Br1754     Br  0.83198680  0.08856618  0.23038589    -0.03000
Br1755     Br  0.74115141  0.18248413  0.30456377    -0.00100
Br1756     Br  0.80750787  0.17189949  0.21625381    -0.04500
C1757       C  0.71163584  0.25705425  0.28349749    -0.11900
C1758       C  0.69581750  0.27449220  0.27985759     0.03600
C1759       C  0.69506797  0.29293367  0.29427575    -0.12400
C1760       C  0.70963092  0.29470174  0.31240729     0.18400
C1761       C  0.72454488  0.27710769  0.31682963    -0.09500
C1762       C  0.72539456  0.25854622  0.30257615    -0.02400
H1763       H  0.68356147  0.30648579  0.29081636     0.05000
C1764       C  0.71085667  0.31612977  0.32476703     0.20400
H1765       H  0.73743065  0.24553485  0.30620743     0.10100
C1766       C  0.69670252  0.32024127  0.34300270    -0.15800
C1767       C  0.69807847  0.34041639  0.35497712     0.03100
C1768       C  0.71392525  0.35677725  0.34872745    -0.11100
C1769       C  0.72767744  0.35266563  0.33016086    -0.01100
C1770       C  0.72611594  0.33271397  0.31814420    -0.06300
H1771       H  0.68482026  0.30758935  0.34813412     0.06100
H1772       H  0.73987995  0.36502140  0.32503717     0.09500
Br1773     Br  0.74477548  0.27827739  0.34162308    -0.06000
Br1774     Br  0.67502073  0.27554612  0.25542647    -0.03000
Br1775     Br  0.67914046  0.34394689  0.38057625    -0.00100
Br1776     Br  0.74526318  0.32870979  0.29275735    -0.04500
C1777       C  0.35510688  0.25907643  0.12119324    -0.11900
C1778       C  0.35636972  0.27759407  0.13580736     0.03600
C1779       C  0.34207505  0.27873732  0.15432695    -0.12400
C1780       C  0.32657375  0.26168428  0.15853699     0.18400
C1781       C  0.32503492  0.24349691  0.14383136    -0.09500
C1782       C  0.33915231  0.24233420  0.12539350    -0.02400
H1783       H  0.34332956  0.29273679  0.16572545     0.05000
C1784       C  0.31220736  0.26262853  0.17846616     0.20400
H1785       H  0.33779557  0.22801807  0.11440213     0.10100
C1786       C  0.29006370  0.26969926  0.17612549    -0.15800
C1787       C  0.27501063  0.26804889  0.19388487     0.03100
C1788       C  0.28222955  0.25927955  0.21464302    -0.11100
C1789       C  0.30465910  0.25266242  0.21695969    -0.01100
C1790       C  0.31958885  0.25426273  0.19908946    -0.06300
H1791       H  0.28425564  0.27572537  0.16008978     0.06100
H1792       H  0.31058712  0.24596384  0.23267447     0.09500
Br1793     Br  0.30441362  0.21941021  0.14874877    -0.06000
Br1794     Br  0.37818179  0.30087473  0.13254916    -0.03000
Br1795     Br  0.24458565  0.27611729  0.18757315    -0.00100
Br1796     Br  0.34961235  0.24382936  0.20318691    -0.04500
C1797       C  0.25821980  0.21529441  0.27998078    -0.11900
C1798       C  0.24850740  0.21345591  0.30150712     0.03600
C1799       C  0.25022925  0.19342048  0.31342058    -0.12400
C1800       C  0.26158584  0.17501418  0.30454915     0.18400
C1801       C  0.27174655  0.17682782  0.28351025    -0.09500
C1802       C  0.27008876  0.19679705  0.27147599    -0.02400
H1803       H  0.24248241  0.19209834  0.32971756     0.05000
C1804       C  0.26172037  0.15381509  0.31718137     0.20400
H1805       H  0.27776312  0.19759482  0.25512813     0.10100
C1806       C  0.24757972  0.13645913  0.31036666    -0.15800
C1807       C  0.24572967  0.11687620  0.32296154     0.03100
C1808       C  0.25827915  0.11441127  0.34276552    -0.11100
C1809       C  0.27312026  0.13145903  0.34906267    -0.01100
C1810       C  0.27473703  0.15116201  0.33654765    -0.06300
H1811       H  0.23761072  0.13835814  0.29539617     0.06100
H1812       H  0.28282692  0.12983840  0.36423109     0.09500
Br1813     Br  0.28811017  0.15244838  0.27065916    -0.06000
Br1814     Br  0.23326584  0.23738418  0.31642585    -0.03000
Br1815     Br  0.22621764  0.09390195  0.31195183    -0.00100
Br1816     Br  0.29457279  0.17420856  0.34664495    -0.04500
C1817       C  0.21529018  0.28140985  0.25626558    -0.11900
C1818       C  0.21083721  0.29366090  0.27581560     0.03600
C1819       C  0.19107123  0.30598146  0.27754747    -0.12400
C1820       C  0.17581137  0.30650469  0.25983918     0.18400
C1821       C  0.18087483  0.29530588  0.23980292    -0.09500
C1822       C  0.20045039  0.28271858  0.23821385    -0.02400
H1823       H  0.18758493  0.31519499  0.29271958     0.05000
C1824       C  0.15479483  0.31899806  0.26240620     0.20400
H1825       H  0.20397829  0.27371870  0.22292617     0.10100
C1826       C  0.15527978  0.34242619  0.26208549    -0.15800
C1827       C  0.13540211  0.35466974  0.26254896     0.03100
C1828       C  0.11482954  0.34336946  0.26362383    -0.11100
C1829       C  0.11437683  0.32002566  0.26481525    -0.01100
C1830       C  0.13420684  0.30777666  0.26434149    -0.06300
H1831       H  0.17108518  0.35113473  0.26065264     0.06100
H1832       H  0.09852550  0.31129467  0.26536482     0.09500
Br1833     Br  0.16183604  0.29719306  0.21408572    -0.06000
Br1834     Br  0.23194395  0.29548711  0.29977323    -0.03000
Br1835     Br  0.13696713  0.38661850  0.26018913    -0.00100
Br1836     Br  0.13234200  0.27579440  0.26583139    -0.04500
C1837       C  0.71161201  0.72206081  0.19509134    -0.11900
C1838       C  0.70263310  0.70150333  0.20269213     0.03600
C1839       C  0.70159285  0.68315008  0.18816825    -0.12400
C1840       C  0.70915782  0.68493087  0.16611400     0.18400
C1841       C  0.71672518  0.70569913  0.15816645    -0.09500
C1842       C  0.71804720  0.72395743  0.17262547    -0.02400
H1843       H  0.69580337  0.66715572  0.19437511     0.05000
C1844       C  0.71156302  0.66460346  0.15231596     0.20400
H1845       H  0.72466703  0.73961173  0.16638103     0.10100
C1846       C  0.69331382  0.65620353  0.14035171    -0.15800
C1847       C  0.69583647  0.63806577  0.12566759     0.03100
C1848       C  0.71716319  0.62798877  0.12281439    -0.11100
C1849       C  0.73510359  0.63617977  0.13568091    -0.01100
C1850       C  0.73246383  0.65419136  0.15020625    -0.06300
H1851       H  0.67714647  0.66417666  0.14202650     0.06100
H1852       H  0.75153576  0.62872835  0.13438253     0.09500
Br1853     Br  0.72633192  0.70956354  0.12786824    -0.06000
Br1854     Br  0.69355494  0.69648653  0.23303953    -0.03000
Br1855     Br  0.66950555  0.62908804  0.10969946    -0.00100
Br1856     Br  0.75809371  0.66430578  0.16661254    -0.04500
C1857       C  0.76298165  0.78127281  0.21959417    -0.11900
C1858       C  0.77536143  0.78909147  0.23812457     0.03600
C1859       C  0.79525890  0.80077881  0.23471375    -0.12400
C1860       C  0.80314547  0.80538859  0.21315784     0.18400
C1861       C  0.79123815  0.79706739  0.19466629    -0.09500
C1862       C  0.77140720  0.78507619  0.19800061    -0.02400
H1863       H  0.80466535  0.80647116  0.24907884     0.05000
C1864       C  0.82385376  0.81882532  0.21076527     0.20400
H1865       H  0.76226526  0.77913588  0.18357396     0.10100
C1866       C  0.84286252  0.80939669  0.20068128    -0.15800
C1867       C  0.86344444  0.82058968  0.20103922     0.03100
C1868       C  0.86528315  0.84126986  0.21207886    -0.11100
C1869       C  0.84611931  0.85110048  0.22127090    -0.01100
C1870       C  0.82550140  0.84023998  0.22047725    -0.06300
H1871       H  0.84192051  0.79287929  0.19334049     0.06100
H1872       H  0.84733108  0.86711038  0.22964550     0.09500
Br1873     Br  0.80073093  0.80241951  0.16455828    -0.06000
Br1874     Br  0.76700708  0.78366989  0.26863308    -0.03000
Br1875     Br  0.88886040  0.80609867  0.18805235    -0.00100
Br1876     Br  0.80018721  0.85532298  0.23321034    -0.04500
C1877       C  0.63066212  0.76020498  0.36135151    -0.11900
C1878       C  0.62852136  0.74525355  0.34319940     0.03600
C1879       C  0.64128485  0.74843472  0.32399763    -0.12400
C1880       C  0.65600069  0.76648827  0.32225260     0.18400
C1881       C  0.65737480  0.78210106  0.33975091    -0.09500
C1882       C  0.64475590  0.77886726  0.35916994    -0.02400
H1883       H  0.63982584  0.73665472  0.31033286     0.05000
C1884       C  0.67012060  0.76806269  0.30218215     0.20400
H1885       H  0.64629774  0.79071663  0.37275274     0.10100
C1886       C  0.66030651  0.77379199  0.28170305    -0.15800
C1887       C  0.67265922  0.77269309  0.26190543     0.03100
C1888       C  0.69510445  0.76577854  0.26255582    -0.11100
C1889       C  0.70506833  0.76070189  0.28310130    -0.01100
C1890       C  0.69270312  0.76155988  0.30283079    -0.06300
H1891       H  0.64288864  0.77868016  0.28109809     0.06100
H1892       H  0.72228891  0.75514635  0.28368044     0.09500
Br1893     Br  0.67612931  0.80800225  0.33767584    -0.06000
Br1894     Br  0.60749054  0.72103133  0.34267278    -0.03000
Br1895     Br  0.65842982  0.78109842  0.23450495    -0.00100
Br1896     Br  0.70685131  0.75204248  0.32995254    -0.04500
C1897       C  0.26280741  0.75695937  0.19222080    -0.11900
C1898       C  0.27500047  0.77586645  0.19990566     0.03600
C1899       C  0.27632009  0.79515586  0.18666074    -0.12400
C1900       C  0.26566440  0.79627905  0.16589829     0.18400
C1901       C  0.25403369  0.77750005  0.15797585    -0.09500
C1902       C  0.25280364  0.75813863  0.17096506    -0.02400
H1903       H  0.28520889  0.80965547  0.19286969     0.05000
C1904       C  0.26546581  0.81755318  0.15327889     0.20400
H1905       H  0.24349831  0.74406196  0.16445019     0.10100
C1906       C  0.27788059  0.81946019  0.13349816    -0.15800
C1907       C  0.27596709  0.83845834  0.11991809     0.03100
C1908       C  0.26134454  0.85591988  0.12612092    -0.11100
C1909       C  0.24947869  0.85418546  0.14626860    -0.01100
C1910       C  0.25154442  0.83532106  0.15986841    -0.06300
H1911       H  0.28851086  0.80577547  0.12824435     0.06100
H1912       H  0.23824422  0.86746389  0.15131262     0.09500
Br1913     Br  0.23835367  0.77799745  0.13004845    -0.06000
Br1914     Br  0.28924845  0.77773587  0.22859572    -0.03000
Br1915     Br  0.29202630  0.83856878  0.09219725    -0.00100
Br1916     Br  0.23403722  0.83404328  0.18666886    -0.04500
C1917       C  0.11659936  0.62782003  0.21741494    -0.11900
C1918       C  0.12940879  0.62480420  0.19768807     0.03600
C1919       C  0.14949398  0.63651417  0.19482565    -0.12400
C1920       C  0.15720758  0.65127085  0.21119118     0.18400
C1921       C  0.14447631  0.65460494  0.23060839    -0.09500
C1922       C  0.12449815  0.64289910  0.23363599    -0.02400
H1923       H  0.15931933  0.63388970  0.17986273     0.05000
C1924       C  0.17868250  0.66302050  0.20810544     0.20400
H1925       H  0.11503557  0.64576556  0.24877884     0.10100
C1926       C  0.17886938  0.68405584  0.19790159    -0.15800
C1927       C  0.19818328  0.69728141  0.19791020     0.03100
C1928       C  0.21779087  0.68948840  0.20873571    -0.11100
C1929       C  0.21780428  0.66762886  0.21748809    -0.01100
C1930       C  0.19854970  0.65441433  0.21711024    -0.06300
H1931       H  0.16360970  0.69060096  0.19069705     0.06100
H1932       H  0.23268919  0.66097013  0.22532816     0.09500
Br1933     Br  0.15381569  0.67509337  0.25342095    -0.06000
Br1934     Br  0.12163092  0.60424820  0.17438548    -0.03000
Br1935     Br  0.19548076  0.72623180  0.18428570    -0.00100
Br1936     Br  0.19978240  0.62506243  0.22994128    -0.04500
C1937       C  0.27967844  0.71084739  0.25869362    -0.11900
C1938       C  0.27077970  0.69978140  0.27769175     0.03600
C1939       C  0.28308220  0.69907066  0.29757858    -0.12400
C1940       C  0.30411952  0.70918893  0.29909861     0.18400
C1941       C  0.31328362  0.71958366  0.28016021    -0.09500
C1942       C  0.30114374  0.72031308  0.26026509    -0.02400
H1943       H  0.27593963  0.69110190  0.31216857     0.05000
C1944       C  0.31583673  0.70995914  0.32080916     0.20400
H1945       H  0.30846426  0.72872146  0.24602448     0.10100
C1946       C  0.33496409  0.69683698  0.32411472    -0.15800
C1947       C  0.34772757  0.69895789  0.34359136     0.03100
C1948       C  0.34137761  0.71455392  0.36012826    -0.11100
C1949       C  0.32186889  0.72720679  0.35698291    -0.01100
C1950       C  0.30903387  0.72488716  0.33763960    -0.06300
H1951       H  0.34035056  0.68540174  0.31116461     0.06100
H1952       H  0.31670421  0.73916477  0.36954869     0.09500
Br1953     Br  0.34184721  0.73412293  0.28102795    -0.06000
Br1954     Br  0.24147259  0.68667706  0.27870719    -0.03000
Br1955     Br  0.37463548  0.68162203  0.34557381    -0.00100
Br1956     Br  0.28294083  0.74324901  0.33447300    -0.04500
C1957       C  0.77924563  0.75875797  0.71427293    -0.11900
C1958       C  0.77314844  0.77448809  0.69751185     0.03600
C1959       C  0.78546728  0.77572291  0.67760129    -0.12400
C1960       C  0.80379623  0.76168205  0.67386731     0.18400
C1961       C  0.81018250  0.74645384  0.69047710    -0.09500
C1962       C  0.79810513  0.74516258  0.71036293    -0.02400
H1963       H  0.78051244  0.78748247  0.66477113     0.05000
C1964       C  0.81576419  0.76233698  0.65229919     0.20400
H1965       H  0.80351034  0.73312142  0.72271079     0.10100
C1966       C  0.83510491  0.77540543  0.65017224    -0.15800
C1967       C  0.84839965  0.77409064  0.63094205     0.03100
C1968       C  0.84228488  0.75953214  0.61346145    -0.11100
C1969       C  0.82261500  0.74688992  0.61547861    -0.01100
C1970       C  0.80934898  0.74826709  0.63463333    -0.06300
H1971       H  0.84033955  0.78596759  0.66389183     0.06100
H1972       H  0.81776582  0.73554707  0.60224178     0.09500
Br1973     Br  0.83502319  0.72657241  0.68640003    -0.06000
Br1974     Br  0.74814439  0.79454966  0.69969521    -0.03000
Br1975     Br  0.87585189  0.79062307  0.63050542    -0.00100
Br1976     Br  0.78320134  0.72981326  0.63648216    -0.04500
C1977       C  0.76357198  0.71230246  0.78068676    -0.11900
C1978       C  0.77205109  0.69220249  0.77138405     0.03600
C1979       C  0.77375680  0.67299984  0.78463401    -0.12400
C1980       C  0.76714243  0.67325445  0.80702936     0.18400
C1981       C  0.75956236  0.69331652  0.81658491    -0.09500
C1982       C  0.75782654  0.71257006  0.80346607    -0.02400
H1983       H  0.77937457  0.65748104  0.77717789     0.05000
C1984       C  0.76576333  0.65197191  0.81942778     0.20400
H1985       H  0.75145700  0.72772254  0.81105387     0.10100
C1986       C  0.78260192  0.64602360  0.83454615    -0.15800
C1987       C  0.78081023  0.62650995  0.84741730     0.03100
C1988       C  0.76169402  0.61272068  0.84531166    -0.11100
C1989       C  0.74518026  0.61864056  0.82971733    -0.01100
C1990       C  0.74714956  0.63792749  0.81678474    -0.06300
H1991       H  0.79696860  0.65683484  0.83663210     0.06100
H1992       H  0.73050270  0.60825679  0.82762281     0.09500
Br1993     Br  0.75017391  0.69479866  0.84716411    -0.06000
Br1994     Br  0.77960068  0.68868455  0.74041645    -0.03000
Br1995     Br  0.80426342  0.62077203  0.86847748    -0.00100
Br1996     Br  0.72364010  0.64479446  0.79612017    -0.04500
C1997       C  0.71707014  0.77861981  0.76515088    -0.11900
C1998       C  0.69710125  0.76988504  0.77439574     0.03600
C1999       C  0.67814671  0.78349356  0.77611568    -0.12400
C2000       C  0.67849587  0.80571004  0.76870366     0.18400
C2001       C  0.69867901  0.81485644  0.76086611    -0.09500
C2002       C  0.71767428  0.80133093  0.75908698    -0.02400
H2003       H  0.66264941  0.77636266  0.78217869     0.05000
C2004       C  0.65714832  0.81806286  0.76663569     0.20400
H2005       H  0.73284809  0.80848068  0.75229152     0.10100
C2006       C  0.65263538  0.83647166  0.78043733    -0.15800
C2007       C  0.63291647  0.84892540  0.77785329     0.03100
C2008       C  0.61729363  0.84288721  0.76119514    -0.11100
C2009       C  0.62181044  0.82419304  0.74775302    -0.01100
C2010       C  0.64143218  0.81186906  0.75031125    -0.06300
H2011       H  0.66470165  0.84140633  0.79297140     0.06100
H2012       H  0.61002941  0.81913282  0.73502817     0.09500
Br2013     Br  0.70071614  0.84525220  0.75086218    -0.06000
Br2014     Br  0.69342250  0.73910138  0.78279586    -0.03000
Br2015     Br  0.62926327  0.87481454  0.79642252    -0.00100
Br2016     Br  0.64642840  0.78727102  0.73032508    -0.04500
loop_ 
_geom_bond_atom_site_label_1 
_geom_bond_atom_site_label_2 
_geom_bond_distance 
_geom_bond_site_symmetry_2 
_ccdc_geom_bond_type 
C1            N2   1.358       .  A
C1            N6   1.361       .  A
C1         C1957   1.498       .  S
N2            C3   1.361       .  A
C3            N4   1.358       .  A
C3         C1997   1.486       .  S
N4            C5   1.359       .  A
C5            N6   1.357       .  A
C5         C1977   1.488       .  S
C7            N8   1.359       .  A
C7           N12   1.358       .  A
C7         C1928   1.490       .  S
N8            C9   1.356       .  A
C9           N10   1.360       .  A
C9         C1937   1.490       .  S
N10          C11   1.358       .  A
C11          N12   1.361       .  A
C11        C1897   1.496       .  S
C13          N14   1.358       .  A
C13          N18   1.355       .  A
C13        C1888   1.467       .  S
N14          C15   1.359       .  A
C15          N16   1.361       .  A
C15        C1837   1.483       .  S
N16          C17   1.359       .  A
C17          N18   1.356       .  A
C17        C1857   1.483       .  S
C19          N20   1.360       .  A
C19          N24   1.355       .  A
C19        C1788   1.482       .  S
N20          C21   1.362       .  A
C21          N22   1.359       .  A
C21        C1797   1.491       .  S
N22          C23   1.358       .  A
C23          N24   1.354       .  A
C23        C1817   1.468       .  S
C25          N26   1.359       .  A
C25          N30   1.365       .  A
C25        C1757   1.503       .  S
N26          C27   1.358       .  A
C27          N28   1.355       .  A
C27        C1728   1.476       .  S
N28          C29   1.358       .  A
C29          N30   1.362       .  A
C29        C1748   1.480       .  S
C31          N32   1.364       .  A
C31          N36   1.360       .  A
C31        C1657   1.489       .  S
N32          C33   1.361       .  A
C33          N34   1.355       .  A
C33        C1677   1.474       .  S
N34          C35   1.352       .  A
C35          N36   1.357       .  A
C35        C1708   1.465       .  S
C37          N38   1.357       .  A
C37          N42   1.356       .  A
C37        C1617   1.485       .  S
N38          C39   1.360       .  A
C39          N40   1.361       .  A
C39        C1637   1.487       .  S
N40          C41   1.359       .  A
C41          N42   1.356       .  A
C41        C1597   1.476       .  S
O43         Mg45   2.139       .  S
O43         Mg51   2.155       .  S
O43          C78   1.237       .  S
C44          O57   1.237       .  S
C44          O81   1.271       .  A
C44          H83   1.081       .  S
Mg45         O74   2.140   1_556  S
Mg45         O89   2.291       .  S
Mg45         O85   2.254   1_455  S
Mg45         O56   2.298   1_455  S
O46         Mg88   2.155       .  S
O46         Mg71   2.127       .  S
O46          C67   1.237       .  S
O47          C78   1.270   1_565  A
O47         Mg71   2.296   1_556  S
C48        C1588   1.482       .  S
C48          O50   1.273       .  A
C48          O62   1.277       .  A
O49          C77   1.271       .  A
O49         Mg51   2.301   1_554  S
O50         Mg82   2.276       .  S
Mg51         O57   2.140   1_556  S
Mg51         O65   2.272       .  S
Mg51         O53   2.327       .  S
C52        C1557   1.487       .  S
C52          O90   1.272       .  A
C52          O58   1.278   1_655  A
O53          C60   1.278   1_545  A
H54          C67   1.081       .  S
C55          O69   1.237       .  S
C55          O70   1.271       .  A
C55          H80   1.082       .  S
O56          C79   1.271   1_556  A
O57         Mg71   2.144   1_545  S
O58         Mg88   2.323       .  S
C59        C1497   1.489       .  S
C59          O72   1.275       .  A
C59          O64   1.273       .  A
C60        C1477   1.484       .  S
C60          O87   1.268       .  A
Mg61         O68   2.138       .  S
Mg61         O69   2.151   1_655  S
Mg61         O62   2.303       .  S
Mg61         O63   2.294   1_545  S
Mg61         O90   2.257   1_545  S
O63          C67   1.271   1_655  A
O64         Mg71   2.285       .  S
O65          C84   1.272       .  A
O66          C86   1.278   1_554  A
O66         Mg82   2.337       .  S
O68         Mg82   2.151       .  S
O68          C79   1.238       .  S
O69         Mg88   2.150   1_545  S
O70         Mg82   2.303   1_455  S
Mg71         O87   2.236   1_554  S
O72         Mg88   2.300       .  S
H73          C78   1.081       .  S
O74         Mg82   2.137   1_455  S
O74          C77   1.237       .  S
H75          C77   1.081       .  S
H76          C79   1.081       .  S
O81         Mg88   2.299   1_545  S
C84        C1548   1.486       .  S
C84          O89   1.275       .  A
O85          C86   1.272       .  A
C86        C1517   1.484       .  S
C91          N92   1.362       .  A
C91          N96   1.364       .  A
C91        C1457   1.488       .  S
N92          C93   1.360       .  A
C93          N94   1.351       .  A
C93        C1537   1.492       .  S
N94          C95   1.354       .  A
C95          N96   1.362       .  A
C95        C1437   1.480       .  S
C97          N98   1.364       .  A
C97         N102   1.360       .  A
C97        C1417   1.491       .  S
N98          C99   1.361       .  A
C99         N100   1.356       .  A
C99        C1737   1.477       .  S
N100        C101   1.354       .  A
C101        N102   1.360       .  A
C101       C1577   1.490       .  S
C103        N104   1.361       .  A
C103        N108   1.360       .  A
C103       C1397   1.484       .  S
N104        C105   1.360       .  A
C105        N106   1.359       .  A
C105       C1908   1.480       .  S
N106        C107   1.357       .  A
C107        N108   1.360       .  A
C107       C1508   1.496       .  S
O109       Mg111   2.137       .  S
O109       Mg117   2.156       .  S
O109        C144   1.239       .  S
C110        O123   1.236       .  S
C110        O147   1.270       .  A
C110        H149   1.082       .  S
Mg111       O140   2.141       .  S
Mg111       O155   2.297       .  S
Mg111       O151   2.251       .  S
Mg111       O122   2.300       .  S
O112       Mg154   2.154       .  S
O112       Mg137   2.129       .  S
O112        C133   1.238   1_655  S
O113        C144   1.273       .  A
O113       Mg137   2.301       .  S
C114       C1297   1.486       .  S
C114        O116   1.272       .  A
C114        O128   1.275       .  A
O115        C143   1.270       .  A
O115       Mg117   2.299       .  S
O116       Mg148   2.275       .  S
Mg117       O123   2.132       .  S
Mg117       O131   2.276       .  S
Mg117       O119   2.310       .  S
C118       C1277   1.483       .  S
C118        O156   1.271   1_455  A
C118        O124   1.279       .  A
O119        C126   1.275       .  A
H120        C133   1.081       .  S
C121        O135   1.236       .  S
C121        O136   1.270       .  A
C121        H146   1.081       .  S
O122        C145   1.271       .  A
O123       Mg137   2.140       .  S
O124       Mg154   2.339   1_455  S
C125       C1337   1.492       .  S
C125        O138   1.274       .  A
C125        O130   1.276       .  A
C126       C1317   1.481       .  S
C126        O153   1.271       .  A
Mg127       O134   2.143       .  S
Mg127       O135   2.141       .  S
Mg127       O128   2.291       .  S
Mg127       O129   2.293       .  S
Mg127       O156   2.246       .  S
O129        C133   1.271   1_655  A
O130       Mg137   2.294   1_455  S
O131        C150   1.272       .  A
O132        C152   1.277       .  A
O132       Mg148   2.329       .  S
O134       Mg148   2.156       .  S
O134        C145   1.237       .  S
O135       Mg154   2.136       .  S
O136       Mg148   2.298       .  S
Mg137       O153   2.249       .  S
O138       Mg154   2.281   1_455  S
H139        C144   1.081       .  S
O140       Mg148   2.138       .  S
O140        C143   1.236       .  S
H141        C143   1.081       .  S
H142        C145   1.081       .  S
O147       Mg154   2.298       .  S
C150       C1377   1.487       .  S
C150        O155   1.275       .  A
O151        C152   1.272       .  A
C152       C1357   1.485       .  S
C157        N158   1.360       .  A
C157        N162   1.367       .  A
C157       C1268   1.504       .  S
N158        C159   1.359       .  A
C159        N160   1.354       .  A
C159       C1388   1.483       .  S
N160        C161   1.356       .  A
C161        N162   1.364       .  A
C161       C1768   1.484       .  S
C163        N164   1.361       .  A
C163        N168   1.358       .  A
C163       C1237   1.485       .  S
N164        C165   1.360       .  A
C165        N166   1.362       .  A
C165       C1917   1.491       .  S
N166        C167   1.359       .  A
C167        N168   1.358       .  A
C167       C1348   1.483       .  S
C169        N170   1.361       .  A
C169        N174   1.363       .  A
C169       C1217   1.488       .  S
N170        C171   1.360       .  A
C171        N172   1.355       .  A
C171       C1308   1.484       .  S
N172        C173   1.356       .  A
C173        N174   1.361       .  A
C173       C1968   1.478       .  S
O175       Mg177   2.115       .  S
O175       Mg183   2.142   1_455  S
O175        C210   1.236       .  S
C176        O189   1.239       .  S
C176        O213   1.273       .  A
C176        H215   1.080       .  S
Mg177       O206   2.144       .  S
Mg177       O221   2.286   1_455  S
Mg177       O217   2.223       .  S
Mg177       O188   2.298       .  S
O178       Mg220   2.142   1_565  S
O178       Mg203   2.124       .  S
O178        C199   1.237       .  S
O179        C210   1.269       .  A
O179       Mg203   2.290       .  S
C180       C1177   1.484       .  S
C180        O182   1.276       .  A
C180        O194   1.274       .  A
O181        C209   1.273       .  A
O181       Mg183   2.308       .  S
O182       Mg214   2.297       .  S
Mg183       O189   2.158       .  S
Mg183       O197   2.309       .  S
Mg183       O185   2.325       .  S
C184       C1197   1.474       .  S
C184        O222   1.271       .  A
C184        O190   1.278       .  A
O185        C192   1.277       .  A
H186        C199   1.081       .  S
C187        O201   1.239       .  S
C187        O202   1.275       .  A
C187        H212   1.081   1_565  S
O188        C211   1.270       .  A
O189       Mg203   2.151   1_655  S
O190       Mg220   2.334       .  S
C191       C1428   1.497       .  S
C191        O204   1.275   1_655  A
C191        O196   1.274   1_545  A
C192       C1148   1.471       .  S
C192        O219   1.270       .  A
Mg193       O200   2.138       .  S
Mg193       O201   2.143       .  S
Mg193       O194   2.294       .  S
Mg193       O195   2.298       .  S
Mg193       O222   2.252   1_565  S
O195        C199   1.270       .  A
O196       Mg203   2.285   1_655  S
O197        C216   1.275       .  A
O198        C218   1.282       .  A
O198       Mg214   2.369       .  S
O200       Mg214   2.142       .  S
O200        C211   1.236       .  S
O201       Mg220   2.166   1_565  S
O202       Mg214   2.321       .  S
Mg203       O219   2.236   1_455  S
O204       Mg220   2.310       .  S
H205        C210   1.080       .  S
O206       Mg214   2.155       .  S
O206        C209   1.239   1_455  S
H207        C209   1.082       .  S
H208        C211   1.081       .  S
O213       Mg220   2.307   1_665  S
C216       C1228   1.497       .  S
C216        O221   1.274       .  A
O217        C218   1.268       .  A
C218       C1157   1.480       .  S
C223        N224   1.363       .  A
C223        N228   1.358       .  A
C223       C1288   1.488       .  S
N224        C225   1.361       .  A
C225        N226   1.358       .  A
C225       C1168   1.483       .  S
N226        C227   1.358       .  A
C227        N228   1.357       .  A
C227       C1608   1.473       .  S
C229        N230   1.359       .  A
C229        N234   1.361       .  A
C229       C1117   1.482       .  S
N230        C231   1.357       .  A
C231        N232   1.355       .  A
C231       C1208   1.480       .  S
N232        C233   1.357       .  A
C233        N234   1.361       .  A
C233       C1808   1.477       .  S
C235        N236   1.364       .  A
C235        N240   1.360       .  A
C235       C1568   1.492       .  S
N236        C237   1.362       .  A
C237        N238   1.356       .  A
C237       C1868   1.472       .  S
N238        C239   1.353       .  A
C239        N240   1.357       .  A
C239       C1137   1.487       .  S
O241       Mg243   2.146       .  S
O241       Mg249   2.156       .  S
O241        C276   1.238       .  S
C242        O255   1.236       .  S
C242        O279   1.270       .  A
C242        H281   1.081       .  S
Mg243       O272   2.150       .  S
Mg243       O287   2.301       .  S
Mg243       O283   2.266       .  S
Mg243       O254   2.292       .  S
O244       Mg286   2.163       .  S
O244       Mg269   2.133       .  S
O244        C265   1.237   1_556  S
O245        C276   1.272       .  A
O245       Mg269   2.301       .  S
C246       C1017   1.493       .  S
C246        O248   1.275       .  A
C246        O260   1.269       .  A
O247        C275   1.270       .  A
O247       Mg249   2.297       .  S
O248       Mg280   2.309       .  S
Mg249       O255   2.147       .  S
Mg249       O263   2.280       .  S
Mg249       O251   2.342       .  S
C250       C1008   1.496       .  S
C250        O288   1.269   1_554  A
C250        O256   1.277       .  A
O251        C258   1.279       .  A
H252        C265   1.081       .  S
C253        O267   1.237       .  S
C253        O268   1.271       .  A
C253        H278   1.081       .  S
O254        C277   1.270       .  A
O255       Mg269   2.140       .  S
O256       Mg286   2.339   1_554  S
C257       C1057   1.479       .  S
C257        O270   1.274       .  A
C257        O262   1.273       .  A
C258       C1048   1.477       .  S
C258        O285   1.270       .  A
Mg259       O266   2.124       .  S
Mg259       O267   2.143       .  S
Mg259       O260   2.251       .  S
Mg259       O261   2.291       .  S
Mg259       O288   2.230       .  S
O261        C265   1.270   1_556  A
O262       Mg269   2.289   1_554  S
O263        C282   1.275       .  A
O264        C284   1.279       .  A
O264       Mg280   2.324       .  S
O266       Mg280   2.159       .  S
O266        C277   1.237       .  S
O267       Mg286   2.130       .  S
O268       Mg280   2.298       .  S
Mg269       O285   2.240       .  S
O270       Mg286   2.271   1_554  S
H271        C276   1.081       .  S
O272       Mg280   2.140       .  S
O272        C275   1.236       .  S
H273        C275   1.082       .  S
H274        C277   1.081       .  S
O279       Mg286   2.303       .  S
C282       C1097   1.479       .  S
C282        O287   1.276       .  A
O283        C284   1.274       .  A
C284       C1077   1.485       .  S
C289        N290   1.364       .  A
C289        N294   1.359       .  A
C289        C977   1.488       .  S
N290        C291   1.361       .  A
C291        N292   1.357       .  A
C291        C957   1.480       .  S
N292        C293   1.355       .  A
C293        N294   1.357       .  A
C293       C1108   1.489       .  S
C295        N296   1.362       .  A
C295        N300   1.358       .  A
C295        C948   1.476       .  S
N296        C297   1.362       .  A
C297        N298   1.358       .  A
C297       C1717   1.477       .  S
N298        C299   1.357       .  A
C299        N300   1.356       .  A
C299       C1068   1.491       .  S
C301        N302   1.359       .  A
C301        N306   1.363       .  A
C301        C917   1.493       .  S
N302        C303   1.358       .  A
C303        N304   1.355       .  A
C303       C1028   1.481       .  S
N304        C305   1.358       .  A
C305        N306   1.359       .  A
C305       C1988   1.484       .  S
O307       Mg309   2.128       .  S
O307       Mg315   2.145       .  S
O307        C342   1.235       .  S
C308        O321   1.237   1_556  S
C308        O345   1.272       .  A
C308        H347   1.081       .  S
Mg309       O338   2.148       .  S
Mg309       O353   2.293       .  S
Mg309       O349   2.235       .  S
Mg309       O320   2.291       .  S
O310       Mg352   2.156   1_554  S
O310       Mg335   2.138       .  S
O310        C331   1.236       .  S
O311        C342   1.269       .  A
O311       Mg335   2.293       .  S
C312       C1468   1.484   1_554  S
C312        O314   1.275       .  A
C312        O326   1.270   1_454  A
O313        C341   1.272       .  A
O313       Mg315   2.303       .  S
O314       Mg346   2.310       .  S
Mg315       O321   2.158       .  S
Mg315       O329   2.292       .  S
Mg315       O317   2.334       .  S
C316        C857   1.478       .  S
C316        O354   1.266       .  A
C316        O322   1.278       .  A
O317        C324   1.278       .  A
H318        C331   1.081       .  S
C319        O333   1.238       .  S
C319        O334   1.272       .  A
C319        H344   1.083       .  S
O320        C343   1.269       .  A
O321       Mg335   2.149       .  S
O322       Mg352   2.347       .  S
C323        C928   1.490       .  S
C323        O336   1.271       .  A
C323        O328   1.275       .  A
C324        C888   1.476       .  S
C324        O351   1.271       .  A
Mg325       O332   2.110       .  S
Mg325       O333   2.145   1_554  S
Mg325       O326   2.271   1_554  S
Mg325       O327   2.296       .  S
Mg325       O354   2.205   1_554  S
O327        C331   1.270       .  A
O328       Mg335   2.287   1_556  S
O329        C348   1.275       .  A
O330        C350   1.276       .  A
O330       Mg346   2.312       .  S
O332       Mg346   2.144   1_655  S
O332        C343   1.237       .  S
O333       Mg352   2.145       .  S
O334       Mg346   2.305   1_656  S
Mg335       O351   2.246       .  S
O336       Mg352   2.270       .  S
H337        C342   1.081       .  S
O338       Mg346   2.153   1_655  S
O338        C341   1.237       .  S
H339        C341   1.082   1_455  S
H340        C343   1.080       .  S
O345       Mg352   2.309       .  S
C348       C1248   1.492       .  S
C348        O353   1.275       .  A
O349        C350   1.271   1_655  A
C350        C897   1.470       .  S
C355        N356   1.363       .  A
C355        N360   1.356       .  A
C355        C997   1.489       .  S
N356        C357   1.362       .  A
C357        N358   1.361       .  A
C357       C1848   1.496       .  S
N358        C359   1.355       .  A
C359        N360   1.357       .  A
C359        C877   1.488       .  S
C361        N362   1.359       .  A
C361        N366   1.360       .  A
C361       C1328   1.477       .  S
N362        C363   1.359       .  A
C363        N364   1.352       .  A
C363        C908   1.483       .  S
N364        C365   1.352       .  A
C365        N366   1.356       .  A
C365       C1828   1.459       .  S
C367        N368   1.360       .  A
C367        N372   1.361       .  A
C367       C1528   1.492       .  S
N368        C369   1.358       .  A
C369        N370   1.358       .  A
C369       C1688   1.478       .  S
N370        C371   1.356       .  A
C371        N372   1.360       .  A
C371        C868   1.480       .  S
O373       Mg375   2.128       .  S
O373       Mg381   2.158       .  S
O373        C408   1.236       .  S
C374        O387   1.236       .  S
C374        O411   1.270       .  A
C374        H413   1.081       .  S
Mg375       O404   2.142       .  S
Mg375       O419   2.277       .  S
Mg375       O415   2.244   1_545  S
Mg375       O386   2.290   1_545  S
O376       Mg418   2.164       .  S
O376       Mg401   2.146       .  S
O376        C397   1.238   1_556  S
O377        C408   1.269       .  A
O377       Mg401   2.287       .  S
C378        C788   1.476       .  S
C378        O380   1.271       .  A
C378        O392   1.272       .  A
O379        C407   1.269       .  A
O379       Mg381   2.291       .  S
O380       Mg412   2.266       .  S
Mg381       O387   2.147       .  S
Mg381       O395   2.289       .  S
Mg381       O383   2.319       .  S
C382       C1408   1.482       .  S
C382        O420   1.269   1_554  A
C382        O388   1.280   1_565  A
O383        C390   1.276       .  A
H384        C397   1.081       .  S
C385        O399   1.238       .  S
C385        O400   1.273       .  A
C385        H410   1.081       .  S
O386        C409   1.269       .  A
O387       Mg401   2.152       .  S
O388       Mg418   2.349   1_554  S
C389        C848   1.474       .  S
C389        O402   1.276       .  A
C389        O394   1.273       .  A
C390        C937   1.495       .  S
C390        O417   1.274       .  A
Mg391       O398   2.128       .  S
Mg391       O399   2.141   1_565  S
Mg391       O392   2.272       .  S
Mg391       O393   2.301       .  S
Mg391       O420   2.233       .  S
O393        C397   1.272   1_566  A
O394       Mg401   2.279   1_554  S
O395        C414   1.275       .  A
O396        C416   1.280       .  A
O396       Mg412   2.343       .  S
O398       Mg412   2.154       .  S
O398        C409   1.236       .  S
O399       Mg418   2.150       .  S
O400       Mg412   2.311   1_545  S
Mg401       O417   2.264       .  S
O402       Mg418   2.290   1_554  S
H403        C408   1.081       .  S
O404       Mg412   2.121   1_545  S
O404        C407   1.236       .  S
H405        C407   1.082       .  S
H406        C409   1.081       .  S
O411       Mg418   2.300       .  S
C414        C828   1.484       .  S
C414        O419   1.274       .  A
O415        C416   1.270       .  A
C416        C797   1.492       .  S
C421        N422   1.359       .  A
C421        N426   1.362       .  A
C421        C768   1.488       .  S
N422        C423   1.357       .  A
C423        N424   1.356       .  A
C423        C817   1.482       .  S
N424        C425   1.356       .  A
C425        N426   1.360       .  A
C425       C1668   1.470       .  S
C427        N428   1.362       .  A
C427        N432   1.361       .  A
C427       C1037   1.478       .  S
N428        C429   1.361       .  A
C429        N430   1.352       .  A
C429        C837   1.490       .  S
N430        C431   1.355       .  A
C431        N432   1.359       .  A
C431       C1777   1.481       .  S
C433        N434   1.359       .  A
C433        N438   1.361       .  A
C433       C1488   1.485       .  S
N434        C435   1.358       .  A
C435        N436   1.353       .  A
C435       C1628   1.473       .  S
N436        C437   1.352       .  A
C437        N438   1.359       .  A
C437        C777   1.478       .  S
O439       Mg441   2.125       .  S
O439       Mg447   2.145       .  S
O439        C474   1.237       .  S
C440        O453   1.238       .  S
C440        O477   1.273       .  A
C440        H479   1.082       .  S
Mg441       O470   2.150       .  S
Mg441       O485   2.297       .  S
Mg441       O481   2.226       .  S
Mg441       O452   2.293       .  S
O442       Mg484   2.142       .  S
O442       Mg467   2.123       .  S
O442        C463   1.236       .  S
O443        C474   1.270       .  A
O443       Mg467   2.298       .  S
C444        C988   1.495       .  S
C444        O446   1.274       .  A
C444        O458   1.274       .  A
O445        C473   1.272       .  A
O445       Mg447   2.307       .  S
O446       Mg478   2.289       .  S
Mg447       O453   2.158       .  S
Mg447       O461   2.303       .  S
Mg447       O449   2.335       .  S
C448        C677   1.476       .  S
C448        O486   1.270       .  A
C448        O454   1.278       .  A
O449        C456   1.278       .  A
H450        C463   1.080       .  S
C451        O465   1.237       .  S
C451        O466   1.271       .  A
C451        H476   1.082       .  S
O452        C475   1.269       .  A
O453       Mg467   2.143       .  S
O454       Mg484   2.335       .  S
C455        C708   1.490       .  S
C455        O468   1.272       .  A
C455        O460   1.273       .  A
C456        C717   1.470       .  S
C456        O483   1.268       .  A
Mg457       O464   2.129       .  S
Mg457       O465   2.144       .  S
Mg457       O458   2.287       .  S
Mg457       O459   2.293       .  S
Mg457       O486   2.239       .  S
O459        C463   1.269       .  A
O460       Mg467   2.287       .  S
O461        C480   1.275       .  A
O462        C482   1.276       .  A
O462       Mg478   2.328       .  S
O464       Mg478   2.150       .  S
O464        C475   1.236       .  S
O465       Mg484   2.141       .  S
O466       Mg478   2.300       .  S
Mg467       O483   2.224       .  S
O468       Mg484   2.280       .  S
H469        C474   1.081       .  S
O470       Mg478   2.159       .  S
O470        C473   1.237       .  S
H471        C473   1.080       .  S
H472        C475   1.081       .  S
O477       Mg484   2.312       .  S
C480       C1257   1.499       .  S
C480        O485   1.275       .  A
O481        C482   1.270       .  A
C482        C737   1.478       .  S
C487        N488   1.359       .  A
C487        N492   1.357       .  A
C487        C657   1.472       .  S
N488        C489   1.360       .  A
C489        N490   1.357       .  A
C489       C1877   1.477       .  S
N490        C491   1.357       .  A
C491        N492   1.355       .  A
C491        C728   1.485       .  S
C493        N494   1.362       .  A
C493        N498   1.361       .  A
C493       C1088   1.486       .  S
N494        C495   1.362       .  A
C495        N496   1.355       .  A
C495       C1648   1.484       .  S
N496        C497   1.355       .  A
C497        N498   1.357       .  A
C497        C688   1.484       .  S
C499        N500   1.360       .  A
C499        N504   1.365       .  A
C499       C1368   1.501       .  S
N500        C501   1.358       .  A
C501        N502   1.350       .  A
C501        C748   1.474       .  S
N502        C503   1.355       .  A
C503        N504   1.361       .  A
C503       C1697   1.477       .  S
O505       Mg507   2.134       .  S
O505       Mg513   2.152       .  S
O505        C540   1.237   1_565  S
C506        O519   1.236       .  S
C506        O543   1.270       .  A
C506        H545   1.082       .  S
Mg507       O536   2.145       .  S
Mg507       O551   2.287   1_565  S
Mg507       O547   2.250   1_565  S
Mg507       O518   2.290       .  S
O508       Mg550   2.157       .  S
O508       Mg533   2.134       .  S
O508        C529   1.238       .  S
O509        C540   1.270   1_565  A
O509       Mg533   2.297       .  S
C510        C637   1.495       .  S
C510        O512   1.275       .  A
C510        O524   1.273       .  A
O511        C539   1.271       .  A
O511       Mg513   2.300       .  S
O512       Mg544   2.294       .  S
Mg513       O519   2.147       .  S
Mg513       O527   2.294   1_565  S
Mg513       O515   2.335   1_565  S
C514        C668   1.483       .  S
C514        O552   1.271       .  A
C514        O520   1.274       .  A
O515        C522   1.278       .  A
H516        C529   1.081       .  S
C517        O531   1.237       .  S
C517        O532   1.270       .  A
C517        H542   1.081       .  S
O518        C541   1.270       .  A
O519       Mg533   2.148       .  S
O520       Mg550   2.309       .  S
C521        C597   1.473       .  S
C521        O534   1.271       .  A
C521        O526   1.274       .  A
C522        C757   1.473       .  S
C522        O549   1.270   1_545  A
Mg523       O530   2.126       .  S
Mg523       O531   2.141       .  S
Mg523       O524   2.277       .  S
Mg523       O525   2.298       .  S
Mg523       O552   2.248       .  S
O525        C529   1.272       .  A
O526       Mg533   2.294       .  S
O527        C546   1.276       .  A
O528        C548   1.279       .  A
O528       Mg544   2.331       .  S
O530       Mg544   2.158       .  S
O530        C541   1.238       .  S
O531       Mg550   2.126       .  S
O532       Mg544   2.297       .  S
Mg533       O549   2.238       .  S
O534       Mg550   2.261       .  S
H535        C540   1.081       .  S
O536       Mg544   2.140       .  S
O536        C539   1.237       .  S
H537        C539   1.081       .  S
H538        C541   1.081       .  S
O543       Mg550   2.300       .  S
C546        C617   1.489       .  S
C546        O551   1.273       .  A
O547        C548   1.271   1_545  A
C548       C1128   1.482       .  S
C553        N554   1.360       .  A
C553        N558   1.359       .  A
C553        C697   1.483       .  S
N554        C555   1.359       .  A
C555        N556   1.359       .  A
C555       C1948   1.479       .  S
N556        C557   1.357       .  A
C557        N558   1.359       .  A
C557        C648   1.489       .  S
C559        N560   1.361       .  A
C559        N564   1.363       .  A
C559       C1188   1.485       .  S
N560        C561   1.359       .  A
C561        N562   1.356       .  A
C561        C577   1.477       .  S
N562        C563   1.356       .  A
C563        N564   1.361       .  A
C563        C628   1.486       .  S
C565        N566   1.358       .  A
C565        N570   1.361       .  A
C565        C808   1.489       .  S
N566        C567   1.357       .  A
C567        N568   1.356       .  A
C567        C608   1.489       .  S
N568        C569   1.360       .  A
C569        N570   1.361       .  A
C569       C2008   1.484       .  S
C571        N572   1.360       .  A
C571        N576   1.356       .  A
C571        C968   1.474       .  S
N572        C573   1.359       .  A
C573        N574   1.361       .  A
C573       C1448   1.491       .  S
N574        C575   1.358       .  A
C575        N576   1.357       .  A
C575        C588   1.467       .  S
C577        C578   1.412       .  A
C577        C582   1.405       .  A
C578        C579   1.396       .  A
C578       Br594   1.920       .  S
C579        H583   1.084       .  S
C579        C580   1.400       .  A
C580        C584   1.476       .  S
C580        C581   1.408       .  A
C581        C582   1.400       .  A
C581       Br593   1.918       .  S
C582        H585   1.083       .  S
C584        C586   1.403       .  A
C584        C590   1.410       .  A
C586        H591   1.083       .  S
C586        C587   1.399       .  A
C587        C588   1.406       .  A
C587       Br595   1.917       .  S
C588        C589   1.401       .  A
C589        H592   1.084       .  S
C589        C590   1.398       .  A
C590       Br596   1.920       .  S
C597        C598   1.411       .  A
C597        C602   1.403       .  A
C598        C599   1.399       .  A
C598       Br614   1.920       .  S
C599        H603   1.084       .  S
C599        C600   1.402       .  A
C600        C604   1.477       .  S
C600        C601   1.408       .  A
C601        C602   1.397       .  A
C601       Br613   1.919       .  S
C602        H605   1.084       .  S
C604        C606   1.400       .  A
C604        C610   1.406       .  A
C606        H611   1.084       .  S
C606        C607   1.402       .  A
C607        C608   1.419       .  A
C607       Br615   1.919       .  S
C608        C609   1.408       .  A
C609        H612   1.083       .  S
C609        C610   1.395       .  A
C610       Br616   1.921       .  S
C617        C618   1.418       .  A
C617        C622   1.409       .  A
C618        C619   1.397       .  A
C618       Br634   1.924       .  S
C619        H623   1.084       .  S
C619        C620   1.399       .  A
C620        C624   1.480       .  S
C620        C621   1.407       .  A
C621        C622   1.403       .  A
C621       Br633   1.918       .  S
C622        H625   1.083       .  S
C624        C626   1.403       .  A
C624        C630   1.405       .  A
C626        H631   1.084       .  S
C626        C627   1.402       .  A
C627        C628   1.414       .  A
C627       Br635   1.920       .  S
C628        C629   1.408       .  A
C629        H632   1.082       .  S
C629        C630   1.398       .  A
C630       Br636   1.919       .  S
C637        C638   1.419       .  A
C637        C642   1.412       .  A
C638        C639   1.404       .  A
C638       Br654   1.921       .  S
C639        H643   1.084       .  S
C639        C640   1.402       .  A
C640        C644   1.479       .  S
C640        C641   1.404       .  A
C641        C642   1.395       .  A
C641       Br653   1.921       .  S
C642        H645   1.083       .  S
C644        C646   1.400       .  A
C644        C650   1.406       .  A
C646        H651   1.084       .  S
C646        C647   1.402       .  A
C647        C648   1.419       .  A
C647       Br655   1.921       .  S
C648        C649   1.408       .  A
C649        H652   1.082       .  S
C649        C650   1.397       .  A
C650       Br656   1.920       .  S
C657        C658   1.411       .  A
C657        C662   1.405       .  A
C658        C659   1.394       .  A
C658       Br674   1.921       .  S
C659        H663   1.084       .  S
C659        C660   1.399       .  A
C660        C664   1.472       .  S
C660        C661   1.407       .  A
C661        C662   1.401       .  A
C661       Br673   1.917       .  S
C662        H665   1.083       .  S
C664        C666   1.401       .  A
C664        C670   1.403       .  A
C666        H671   1.084       .  S
C666        C667   1.401       .  A
C667        C668   1.416       .  A
C667       Br675   1.922       .  S
C668        C669   1.408       .  A
C669        H672   1.083       .  S
C669        C670   1.395       .  A
C670       Br676   1.919       .  S
C677        C678   1.412       .  A
C677        C682   1.405       .  A
C678        C679   1.397       .  A
C678       Br694   1.921       .  S
C679        H683   1.084       .  S
C679        C680   1.400       .  A
C680        C684   1.475       .  S
C680        C681   1.407       .  A
C681        C682   1.402       .  A
C681       Br693   1.917       .  S
C682        H685   1.083       .  S
C684        C686   1.401       .  A
C684        C690   1.403       .  A
C686        H691   1.084       .  S
C686        C687   1.399       .  A
C687        C688   1.414       .  A
C687       Br695   1.921       .  S
C688        C689   1.409       .  A
C689        H692   1.083       .  S
C689        C690   1.398       .  A
C690       Br696   1.917       .  S
C697        C698   1.415       .  A
C697        C702   1.407       .  A
C698        C699   1.398       .  A
C698       Br714   1.920       .  S
C699        H703   1.084       .  S
C699        C700   1.399       .  A
C700        C704   1.476       .  S
C700        C701   1.406       .  A
C701        C702   1.400       .  A
C701       Br713   1.918       .  S
C702        H705   1.083       .  S
C704        C706   1.401       .  A
C704        C710   1.404       .  A
C706        H711   1.084       .  S
C706        C707   1.402       .  A
C707        C708   1.418       .  A
C707       Br715   1.921       .  S
C708        C709   1.410       .  A
C709        H712   1.083       .  S
C709        C710   1.396       .  A
C710       Br716   1.920       .  S
C717        C718   1.411       .  A
C717        C722   1.403       .  A
C718        C719   1.395       .  A
C718       Br734   1.921       .  S
C719        H723   1.084       .  S
C719        C720   1.400       .  A
C720        C724   1.472       .  S
C720        C721   1.406       .  A
C721        C722   1.400       .  A
C721       Br733   1.917       .  S
C722        H725   1.084       .  S
C724        C726   1.400       .  A
C724        C730   1.401       .  A
C726        H731   1.084       .  S
C726        C727   1.399       .  A
C727        C728   1.417       .  A
C727       Br735   1.922       .  S
C728        C729   1.408       .  A
C729        H732   1.080       .  S
C729        C730   1.395       .  A
C730       Br736   1.918       .  S
C737        C738   1.412       .  A
C737        C742   1.405       .  A
C738        C739   1.403       .  A
C738       Br754   1.919       .  S
C739        H743   1.083       .  S
C739        C740   1.405       .  A
C740        C744   1.476       .  S
C740        C741   1.406       .  A
C741        C742   1.392       .  A
C741       Br753   1.921       .  S
C742        H745   1.084       .  S
C744        C746   1.402       .  A
C744        C750   1.409       .  A
C746        H751   1.084       .  S
C746        C747   1.400       .  A
C747        C748   1.413       .  A
C747       Br755   1.920       .  S
C748        C749   1.401       .  A
C749        H752   1.084       .  S
C749        C750   1.396       .  A
C750       Br756   1.919       .  S
C757        C758   1.411       .  A
C757        C762   1.404       .  A
C758        C759   1.396       .  A
C758       Br774   1.922   1_545  S
C759        H763   1.084       .  S
C759        C760   1.400       .  A
C760        C764   1.476       .  S
C760        C761   1.408       .  A
C761        C762   1.402       .  A
C761       Br773   1.917       .  S
C762        H765   1.083       .  S
C764        C766   1.401       .  A
C764        C770   1.403       .  A
C766        H771   1.084       .  S
C766        C767   1.401       .  A
C767        C768   1.416       .  A
C767       Br775   1.920       .  S
C768        C769   1.410       .  A
C769        H772   1.083       .  S
C769        C770   1.398       .  A
C770       Br776   1.919       .  S
C777        C778   1.417       .  A
C777        C782   1.405       .  A
C778        C779   1.396       .  A
C778       Br794   1.923       .  S
C779        H783   1.084       .  S
C779        C780   1.398       .  A
C780        C784   1.470       .  S
C780        C781   1.406       .  A
C781        C782   1.397       .  A
C781       Br793   1.919       .  S
C782        H785   1.083       .  S
C784        C786   1.401       .  A
C784        C790   1.404       .  A
C786        H791   1.084       .  S
C786        C787   1.400       .  A
C787        C788   1.415       .  A
C787       Br795   1.921       .  S
C788        C789   1.406       .  A
C789        H792   1.084       .  S
C789        C790   1.393       .  A
C790       Br796   1.920       .  S
C797        C798   1.418       .  A
C797        C802   1.410       .  A
C798        C799   1.394       .  A
C798       Br814   1.919       .  S
C799        H803   1.084       .  S
C799        C800   1.398       .  A
C800        C804   1.484       .  S
C800        C801   1.409       .  A
C801        C802   1.406       .  A
C801       Br813   1.918       .  S
C802        H805   1.083       .  S
C804        C806   1.404       .  A
C804        C810   1.408       .  A
C806        H811   1.083       .  S
C806        C807   1.405       .  A
C807        C808   1.416       .  A
C807       Br815   1.920       .  S
C808        C809   1.407       .  A
C809        H812   1.083       .  S
C809        C810   1.395       .  A
C810       Br816   1.921       .  S
C817        C818   1.416       .  A
C817        C822   1.406       .  A
C818        C819   1.400       .  A
C818       Br834   1.921       .  S
C819        H823   1.084       .  S
C819        C820   1.401       .  A
C820        C824   1.478       .  S
C820        C821   1.407       .  A
C821        C822   1.397       .  A
C821       Br833   1.920       .  S
C822        H825   1.083       .  S
C824        C826   1.402       .  A
C824        C830   1.405       .  A
C826        H831   1.084       .  S
C826        C827   1.401       .  A
C827        C828   1.414       .  A
C827       Br835   1.920       .  S
C828        C829   1.407       .  A
C829        H832   1.082       .  S
C829        C830   1.396       .  A
C830       Br836   1.921       .  S
C837        C838   1.422       .  A
C837        C842   1.407       .  A
C838        C839   1.400       .  A
C838       Br854   1.924       .  S
C839        H843   1.084       .  S
C839        C840   1.399       .  A
C840        C844   1.478       .  S
C840        C841   1.407       .  A
C841        C842   1.397       .  A
C841       Br853   1.919       .  S
C842        H845   1.083       .  S
C844        C846   1.404       .  A
C844        C850   1.407       .  A
C846        H851   1.084       .  S
C846        C847   1.399       .  A
C847        C848   1.409       .  A
C847       Br855   1.919   1_554  S
C848        C849   1.405       .  A
C849        H852   1.084       .  S
C849        C850   1.398       .  A
C850       Br856   1.919       .  S
C857        C858   1.411       .  A
C857        C862   1.406       .  A
C858        C859   1.405       .  A
C858       Br874   1.918       .  S
C859        H863   1.083       .  S
C859        C860   1.406       .  A
C860        C864   1.479       .  S
C860        C861   1.405       .  A
C861        C862   1.393       .  A
C861       Br873   1.921       .  S
C862        H865   1.084       .  S
C864        C866   1.402       .  A
C864        C870   1.408       .  A
C866        H871   1.084       .  S
C866        C867   1.400       .  A
C867        C868   1.414       .  A
C867       Br875   1.920       .  S
C868        C869   1.404       .  A
C869        H872   1.083       .  S
C869        C870   1.399       .  A
C870       Br876   1.919       .  S
C877        C878   1.419       .  A
C877        C882   1.406       .  A
C878        C879   1.404       .  A
C878       Br894   1.921       .  S
C879        H883   1.083       .  S
C879        C880   1.401       .  A
C880        C884   1.476       .  S
C880        C881   1.405       .  A
C881        C882   1.394       .  A
C881       Br893   1.920       .  S
C882        H885   1.083       .  S
C884        C886   1.404       .  A
C884        C890   1.405       .  A
C886        H891   1.083       .  S
C886        C887   1.402       .  A
C887        C888   1.410       .  A
C887       Br895   1.918       .  S
C888        C889   1.405       .  A
C889        H892   1.084       .  S
C889        C890   1.397       .  A
C890       Br896   1.919       .  S
C897        C898   1.413       .  A
C897        C902   1.403       .  A
C898        C899   1.400       .  A
C898       Br914   1.920       .  S
C899        H903   1.083       .  S
C899        C900   1.401       .  A
C900        C904   1.468       .  S
C900        C901   1.405       .  A
C901        C902   1.392       .  A
C901       Br913   1.920       .  S
C902        H905   1.084       .  S
C904        C906   1.396       .  A
C904        C910   1.404       .  A
C906        H911   1.084       .  S
C906        C907   1.397       .  A
C907        C908   1.421       .  A
C907       Br915   1.924       .  S
C908        C909   1.407       .  A
C909        H912   1.083       .  S
C909        C910   1.395       .  A
C910       Br916   1.919   1_455  S
C917        C918   1.421       .  A
C917        C922   1.410       .  A
C918        C919   1.400       .  A
C918       Br934   1.921       .  S
C919        H923   1.084       .  S
C919        C920   1.398       .  A
C920        C924   1.476       .  S
C920        C921   1.404       .  A
C921        C922   1.397       .  A
C921       Br933   1.919       .  S
C922        H925   1.082       .  S
C924        C926   1.401       .  A
C924        C930   1.405       .  A
C926        H931   1.084       .  S
C926        C927   1.403       .  A
C927        C928   1.419       .  A
C927       Br935   1.922       .  S
C928        C929   1.409       .  A
C929        H932   1.083       .  S
C929        C930   1.394       .  A
C930       Br936   1.921       .  S
C937        C938   1.421       .  A
C937        C942   1.409   1_556  A
C938        C939   1.405       .  A
C938       Br954   1.923       .  S
C939        H943   1.083       .  S
C939        C940   1.403   1_556  A
C940        C944   1.484       .  S
C940        C941   1.405       .  A
C941        C942   1.396       .  A
C941       Br953   1.920       .  S
C942        H945   1.083       .  S
C944        C946   1.403       .  A
C944        C950   1.410       .  A
C946        H951   1.084       .  S
C946        C947   1.398       .  A
C947        C948   1.410       .  A
C947       Br955   1.920       .  S
C948        C949   1.403       .  A
C949        H952   1.083       .  S
C949        C950   1.404       .  A
C950       Br956   1.917       .  S
C957        C958   1.412       .  A
C957        C962   1.407       .  A
C958        C959   1.394       .  A
C958       Br974   1.922       .  S
C959        H963   1.084       .  S
C959        C960   1.400       .  A
C960        C964   1.479       .  S
C960        C961   1.409       .  A
C961        C962   1.405       .  A
C961       Br973   1.917       .  S
C962        H965   1.083       .  S
C964        C966   1.403       .  A
C964        C970   1.408       .  A
C966        H971   1.083       .  S
C966        C967   1.403       .  A
C967        C968   1.411       .  A
C967       Br975   1.917       .  S
C968        C969   1.401       .  A
C969        H972   1.083       .  S
C969        C970   1.396       .  A
C970       Br976   1.919       .  S
C977        C978   1.417       .  A
C977        C982   1.408       .  A
C978        C979   1.400       .  A
C978       Br994   1.921       .  S
C979        H983   1.084       .  S
C979        C980   1.399       .  A
C980        C984   1.478       .  S
C980        C981   1.406       .  A
C981        C982   1.401       .  A
C981       Br993   1.918       .  S
C982        H985   1.083       .  S
C984        C986   1.401       .  A
C984        C990   1.403       .  A
C986        H991   1.083       .  S
C986        C987   1.404       .  A
C987        C988   1.419       .  A
C987       Br995   1.921       .  S
C988        C989   1.412       .  A
C989        H992   1.083       .  S
C989        C990   1.396       .  A
C990       Br996   1.920       .  S
C997        C998   1.419       .  A
C997       C1002   1.408       .  A
C998        C999   1.399       .  A
C998      Br1014   1.923       .  S
C999       H1003   1.084       .  S
C999       C1000   1.399       .  A
C1000      C1004   1.479       .  S
C1000      C1001   1.405       .  A
C1001      C1002   1.401       .  A
C1001     Br1013   1.917       .  S
C1002      H1005   1.083       .  S
C1004      C1006   1.403       .  A
C1004      C1010   1.402       .  A
C1006      H1011   1.083       .  S
C1006      C1007   1.406       .  A
C1007      C1008   1.420       .  A
C1007     Br1015   1.921       .  S
C1008      C1009   1.412       .  A
C1009      H1012   1.083       .  S
C1009      C1010   1.394       .  A
C1010     Br1016   1.920       .  S
C1017      C1018   1.417       .  A
C1017      C1022   1.413       .  A
C1018      C1019   1.405       .  A
C1018     Br1034   1.920       .  S
C1019      H1023   1.083       .  S
C1019      C1020   1.403       .  A
C1020      C1024   1.477       .  S
C1020      C1021   1.402       .  A
C1021      C1022   1.394       .  A
C1021     Br1033   1.921       .  S
C1022      H1025   1.083       .  S
C1024      C1026   1.400       .  A
C1024      C1030   1.406       .  A
C1026      H1031   1.084       .  S
C1026      C1027   1.400       .  A
C1027      C1028   1.414       .  A
C1027     Br1035   1.921       .  S
C1028      C1029   1.405       .  A
C1029      H1032   1.082       .  S
C1029      C1030   1.399       .  A
C1030     Br1036   1.918       .  S
C1037      C1038   1.412       .  A
C1037      C1042   1.403       .  A
C1038      C1039   1.402       .  A
C1038     Br1054   1.920       .  S
C1039      H1043   1.083       .  S
C1039      C1040   1.402       .  A
C1040      C1044   1.480       .  S
C1040      C1041   1.409       .  A
C1041      C1042   1.399       .  A
C1041     Br1053   1.919       .  S
C1042      H1045   1.083       .  S
C1044      C1046   1.405       .  A
C1044      C1050   1.406       .  A
C1046      H1051   1.083       .  S
C1046      C1047   1.405   1_554  A
C1047      C1048   1.410       .  A
C1047     Br1055   1.918       .  S
C1048      C1049   1.404   1_556  A
C1049      H1052   1.084       .  S
C1049      C1050   1.395       .  A
C1050     Br1056   1.920       .  S
C1057      C1058   1.414       .  A
C1057      C1062   1.406       .  A
C1058      C1059   1.397       .  A
C1058     Br1074   1.922       .  S
C1059      H1063   1.084       .  S
C1059      C1060   1.399       .  A
C1060      C1064   1.474       .  S
C1060      C1061   1.406       .  A
C1061      C1062   1.399       .  A
C1061     Br1073   1.918       .  S
C1062      H1065   1.083       .  S
C1064      C1066   1.399       .  A
C1064      C1070   1.402       .  A
C1066      H1071   1.084       .  S
C1066      C1067   1.398       .  A
C1067      C1068   1.419       .  A
C1067     Br1075   1.922       .  S
C1068      C1069   1.412       .  A
C1069      H1072   1.083       .  S
C1069      C1070   1.399       .  A
C1070     Br1076   1.918       .  S
C1077      C1078   1.416       .  A
C1077      C1082   1.406       .  A
C1078      C1079   1.401       .  A
C1078     Br1094   1.921       .  S
C1079      H1083   1.084       .  S
C1079      C1080   1.401       .  A
C1080      C1084   1.481       .  S
C1080      C1081   1.408       .  A
C1081      C1082   1.400       .  A
C1081     Br1093   1.919       .  S
C1082      H1085   1.083       .  S
C1084      C1086   1.403       .  A
C1084      C1090   1.406       .  A
C1086      H1091   1.083       .  S
C1086      C1087   1.404       .  A
C1087      C1088   1.415       .  A
C1087     Br1095   1.920       .  S
C1088      C1089   1.406       .  A
C1089      H1092   1.083       .  S
C1089      C1090   1.397       .  A
C1090     Br1096   1.920       .  S
C1097      C1098   1.411       .  A
C1097      C1102   1.405       .  A
C1098      C1099   1.400       .  A
C1098     Br1114   1.920       .  S
C1099      H1103   1.084       .  S
C1099      C1100   1.403       .  A
C1100      C1104   1.482       .  S
C1100      C1101   1.409       .  A
C1101      C1102   1.400       .  A
C1101     Br1113   1.920       .  S
C1102      H1105   1.084       .  S
C1104      C1106   1.401       .  A
C1104      C1110   1.406       .  A
C1106      H1111   1.084       .  S
C1106      C1107   1.399       .  A
C1107      C1108   1.417       .  A
C1107     Br1115   1.922       .  S
C1108      C1109   1.410       .  A
C1109      H1112   1.083       .  S
C1109      C1110   1.400       .  A
C1110     Br1116   1.919       .  S
C1117      C1118   1.414       .  A
C1117      C1122   1.405       .  A
C1118      C1119   1.403       .  A
C1118     Br1134   1.919       .  S
C1119      H1123   1.083       .  S
C1119      C1120   1.402       .  A
C1120      C1124   1.479       .  S
C1120      C1121   1.407       .  A
C1121      C1122   1.397       .  A
C1121     Br1133   1.919       .  S
C1122      H1125   1.084       .  S
C1124      C1126   1.400       .  A
C1124      C1130   1.408   1_545  A
C1126      H1131   1.084       .  S
C1126      C1127   1.399       .  A
C1127      C1128   1.415   1_545  A
C1127     Br1135   1.921       .  S
C1128      C1129   1.405       .  A
C1129      H1132   1.083       .  S
C1129      C1130   1.401       .  A
C1130     Br1136   1.918       .  S
C1137      C1138   1.420       .  A
C1137      C1142   1.407       .  A
C1138      C1139   1.400       .  A
C1138     Br1154   1.922       .  S
C1139      H1143   1.084       .  S
C1139      C1140   1.399       .  A
C1140      C1144   1.475       .  S
C1140      C1141   1.405       .  A
C1141      C1142   1.396       .  A
C1141     Br1153   1.919       .  S
C1142      H1145   1.083       .  S
C1144      C1146   1.402       .  A
C1144      C1150   1.407       .  A
C1146      H1151   1.083       .  S
C1146      C1147   1.400       .  A
C1147      C1148   1.410       .  A
C1147     Br1155   1.920       .  S
C1148      C1149   1.403       .  A
C1149      H1152   1.084       .  S
C1149      C1150   1.396       .  A
C1150     Br1156   1.920       .  S
C1157      C1158   1.412       .  A
C1157      C1162   1.404       .  A
C1158      C1159   1.398       .  A
C1158     Br1174   1.922       .  S
C1159      H1163   1.084       .  S
C1159      C1160   1.402       .  A
C1160      C1164   1.488       .  S
C1160      C1161   1.412       .  A
C1161      C1162   1.405       .  A
C1161     Br1173   1.918       .  S
C1162      H1165   1.083       .  S
C1164      C1166   1.406       .  A
C1164      C1170   1.410       .  A
C1166      H1171   1.083       .  S
C1166      C1167   1.403       .  A
C1167      C1168   1.412       .  A
C1167     Br1175   1.920       .  S
C1168      C1169   1.405       .  A
C1169      H1172   1.084       .  S
C1169      C1170   1.400       .  A
C1170     Br1176   1.919       .  S
C1177      C1178   1.414   1_565  A
C1177      C1182   1.406       .  A
C1178      C1179   1.399       .  A
C1178     Br1194   1.920       .  S
C1179      H1183   1.084       .  S
C1179      C1180   1.400       .  A
C1180      C1184   1.480       .  S
C1180      C1181   1.408   1_545  A
C1181      C1182   1.403       .  A
C1181     Br1193   1.917       .  S
C1182      H1185   1.083       .  S
C1184      C1186   1.401       .  A
C1184      C1190   1.407       .  A
C1186      H1191   1.083       .  S
C1186      C1187   1.403       .  A
C1187      C1188   1.416       .  A
C1187     Br1195   1.920       .  S
C1188      C1189   1.405       .  A
C1189      H1192   1.083       .  S
C1189      C1190   1.399       .  A
C1190     Br1196   1.919       .  S
C1197      C1198   1.409       .  A
C1197      C1202   1.403       .  A
C1198      C1199   1.398       .  A
C1198     Br1214   1.916       .  S
C1199      H1203   1.084       .  S
C1199      C1200   1.402       .  A
C1200      C1204   1.481       .  S
C1200      C1201   1.410       .  A
C1201      C1202   1.401       .  A
C1201     Br1213   1.919       .  S
C1202      H1205   1.084       .  S
C1204      C1206   1.403       .  A
C1204      C1210   1.408       .  A
C1206      H1211   1.084       .  S
C1206      C1207   1.399       .  A
C1207      C1208   1.412       .  A
C1207     Br1215   1.921       .  S
C1208      C1209   1.406       .  A
C1209      H1212   1.083       .  S
C1209      C1210   1.399       .  A
C1210     Br1216   1.919       .  S
C1217      C1218   1.416       .  A
C1217      C1222   1.406       .  A
C1218      C1219   1.402       .  A
C1218     Br1234   1.920       .  S
C1219      H1223   1.083       .  S
C1219      C1220   1.401       .  A
C1220      C1224   1.484       .  S
C1220      C1221   1.408       .  A
C1221      C1222   1.402       .  A
C1221     Br1233   1.918       .  S
C1222      H1225   1.083       .  S
C1224      C1226   1.404       .  A
C1224      C1230   1.404       .  A
C1226      H1231   1.083       .  S
C1226      C1227   1.408       .  A
C1227      C1228   1.419       .  A
C1227     Br1235   1.919       .  S
C1228      C1229   1.411       .  A
C1229      H1232   1.083       .  S
C1229      C1230   1.397       .  A
C1230     Br1236   1.920       .  S
C1237      C1238   1.416       .  A
C1237      C1242   1.406       .  A
C1238      C1239   1.402       .  A
C1238     Br1254   1.920       .  S
C1239      H1243   1.083   1_455  S
C1239      C1240   1.401       .  A
C1240      C1244   1.478       .  S
C1240      C1241   1.405       .  A
C1241      C1242   1.398       .  A
C1241     Br1253   1.918       .  S
C1242      H1245   1.081       .  S
C1244      C1246   1.401       .  A
C1244      C1250   1.404       .  A
C1246      H1251   1.083       .  S
C1246      C1247   1.404   1_455  A
C1247      C1248   1.418       .  A
C1247     Br1255   1.920       .  S
C1248      C1249   1.410   1_655  A
C1249      H1252   1.083   1_455  S
C1249      C1250   1.397       .  A
C1250     Br1256   1.920       .  S
C1257      C1258   1.419       .  A
C1257      C1262   1.411       .  A
C1258      C1259   1.407       .  A
C1258     Br1274   1.921       .  S
C1259      H1263   1.083       .  S
C1259      C1260   1.404       .  A
C1260      C1264   1.488       .  S
C1260      C1261   1.407       .  A
C1261      C1262   1.399       .  A
C1261     Br1273   1.920       .  S
C1262      H1265   1.083       .  S
C1264      C1266   1.399       .  A
C1264      C1270   1.407       .  A
C1266      H1271   1.084       .  S
C1266      C1267   1.403       .  A
C1267      C1268   1.425       .  A
C1267     Br1275   1.923       .  S
C1268      C1269   1.411       .  A
C1269      H1272   1.083       .  S
C1269      C1270   1.403       .  A
C1270     Br1276   1.918       .  S
C1277      C1278   1.414       .  A
C1277      C1282   1.407       .  A
C1278      C1279   1.394       .  A
C1278     Br1294   1.918   1_455  S
C1279      H1283   1.084       .  S
C1279      C1280   1.398       .  A
C1280      C1284   1.479       .  S
C1280      C1281   1.409       .  A
C1281      C1282   1.406       .  A
C1281     Br1293   1.917       .  S
C1282      H1285   1.083       .  S
C1284      C1286   1.401       .  A
C1284      C1290   1.405       .  A
C1286      H1291   1.084       .  S
C1286      C1287   1.400       .  A
C1287      C1288   1.419       .  A
C1287     Br1295   1.923       .  S
C1288      C1289   1.408       .  A
C1289      H1292   1.083       .  S
C1289      C1290   1.400       .  A
C1290     Br1296   1.918       .  S
C1297      C1298   1.417       .  A
C1297      C1302   1.407       .  A
C1298      C1299   1.402       .  A
C1298     Br1314   1.921       .  S
C1299      H1303   1.084       .  S
C1299      C1300   1.401       .  A
C1300      C1304   1.478       .  S
C1300      C1301   1.405       .  A
C1301      C1302   1.397       .  A
C1301     Br1313   1.920       .  S
C1302      H1305   1.082       .  S
C1304      C1306   1.400       .  A
C1304      C1310   1.407       .  A
C1306      H1311   1.084       .  S
C1306      C1307   1.399       .  A
C1307      C1308   1.417       .  A
C1307     Br1315   1.921       .  S
C1308      C1309   1.406       .  A
C1309      H1312   1.082       .  S
C1309      C1310   1.399       .  A
C1310     Br1316   1.919       .  S
C1317      C1318   1.414       .  A
C1317      C1322   1.407   1_655  A
C1318      C1319   1.399       .  A
C1318     Br1334   1.921       .  S
C1319      H1323   1.084       .  S
C1319      C1320   1.401   1_655  A
C1320      C1324   1.476       .  S
C1320      C1321   1.407       .  A
C1321      C1322   1.397       .  A
C1321     Br1333   1.920       .  S
C1322      H1325   1.084       .  S
C1324      C1326   1.401       .  A
C1324      C1330   1.406       .  A
C1326      H1331   1.084       .  S
C1326      C1327   1.397       .  A
C1327      C1328   1.413       .  A
C1327     Br1335   1.922       .  S
C1328      C1329   1.406       .  A
C1329      H1332   1.083       .  S
C1329      C1330   1.399       .  A
C1330     Br1336   1.918       .  S
C1337      C1338   1.418       .  A
C1337      C1342   1.410       .  A
C1338      C1339   1.404       .  A
C1338     Br1354   1.921       .  S
C1339      H1343   1.083       .  S
C1339      C1340   1.402       .  A
C1340      C1344   1.479       .  S
C1340      C1341   1.405       .  A
C1341      C1342   1.395       .  A
C1341     Br1353   1.921       .  S
C1342      H1345   1.083       .  S
C1344      C1346   1.401       .  A
C1344      C1350   1.407       .  A
C1346      H1351   1.084       .  S
C1346      C1347   1.401       .  A
C1347      C1348   1.414       .  A
C1347     Br1355   1.920       .  S
C1348      C1349   1.406       .  A
C1349      H1352   1.083       .  S
C1349      C1350   1.399       .  A
C1350     Br1356   1.919       .  S
C1357      C1358   1.414       .  A
C1357      C1362   1.406       .  A
C1358      C1359   1.406       .  A
C1358     Br1374   1.919       .  S
C1359      H1363   1.083       .  S
C1359      C1360   1.405       .  A
C1360      C1364   1.483       .  S
C1360      C1361   1.407       .  A
C1361      C1362   1.395       .  A
C1361     Br1373   1.920       .  S
C1362      H1365   1.084       .  S
C1364      C1366   1.400       .  A
C1364      C1370   1.405       .  A
C1366      H1371   1.084       .  S
C1366      C1367   1.402       .  A
C1367      C1368   1.425       .  A
C1367     Br1375   1.924       .  S
C1368      C1369   1.411       .  A
C1369      H1372   1.083       .  S
C1369      C1370   1.400       .  A
C1370     Br1376   1.918       .  S
C1377      C1378   1.417       .  A
C1377      C1382   1.407       .  A
C1378      C1379   1.402       .  A
C1378     Br1394   1.921       .  S
C1379      H1383   1.084       .  S
C1379      C1380   1.403       .  A
C1380      C1384   1.481       .  S
C1380      C1381   1.406       .  A
C1381      C1382   1.397       .  A
C1381     Br1393   1.920       .  S
C1382      H1385   1.083       .  S
C1384      C1386   1.402       .  A
C1384      C1390   1.408       .  A
C1386      H1391   1.084       .  S
C1386      C1387   1.401       .  A
C1387      C1388   1.415       .  A
C1387     Br1395   1.921       .  S
C1388      C1389   1.404       .  A
C1389      H1392   1.083       .  S
C1389      C1390   1.399       .  A
C1390     Br1396   1.919       .  S
C1397      C1398   1.414       .  A
C1397      C1402   1.406       .  A
C1398      C1399   1.400       .  A
C1398     Br1414   1.920       .  S
C1399      H1403   1.084       .  S
C1399      C1400   1.400       .  A
C1400      C1404   1.481       .  S
C1400      C1401   1.409       .  A
C1401      C1402   1.401       .  A
C1401     Br1413   1.919       .  S
C1402      H1405   1.083       .  S
C1404      C1406   1.405       .  A
C1404      C1410   1.407       .  A
C1406      H1411   1.083       .  S
C1406      C1407   1.405       .  A
C1407      C1408   1.411       .  A
C1407     Br1415   1.918       .  S
C1408      C1409   1.407       .  A
C1409      H1412   1.084   1_554  S
C1409      C1410   1.396       .  A
C1410     Br1416   1.920       .  S
C1417      C1418   1.418       .  A
C1417      C1422   1.407       .  A
C1418      C1419   1.402       .  A
C1418     Br1434   1.921       .  S
C1419      H1423   1.084       .  S
C1419      C1420   1.400       .  A
C1420      C1424   1.484       .  S
C1420      C1421   1.408       .  A
C1421      C1422   1.401       .  A
C1421     Br1433   1.919       .  S
C1422      H1425   1.083       .  S
C1424      C1426   1.403       .  A
C1424      C1430   1.404       .  A
C1426      H1431   1.083       .  S
C1426      C1427   1.407       .  A
C1427      C1428   1.418       .  A
C1427     Br1435   1.919   1_655  S
C1428      C1429   1.411       .  A
C1429      H1432   1.083   1_545  S
C1429      C1430   1.397       .  A
C1430     Br1436   1.920       .  S
C1437      C1438   1.411       .  A
C1437      C1442   1.405       .  A
C1438      C1439   1.404       .  A
C1438     Br1454   1.918       .  S
C1439      H1443   1.083       .  S
C1439      C1440   1.405       .  A
C1440      C1444   1.483       .  S
C1440      C1441   1.407       .  A
C1441      C1442   1.397       .  A
C1441     Br1453   1.920       .  S
C1442      H1445   1.084       .  S
C1444      C1446   1.401       .  A
C1444      C1450   1.407       .  A
C1446      H1451   1.084       .  S
C1446      C1447   1.402       .  A
C1447      C1448   1.419       .  A
C1447     Br1455   1.921       .  S
C1448      C1449   1.408       .  A
C1449      H1452   1.083       .  S
C1449      C1450   1.399       .  A
C1450     Br1456   1.920       .  S
C1457      C1458   1.415       .  A
C1457      C1462   1.407       .  A
C1458      C1459   1.404       .  A
C1458     Br1474   1.919       .  S
C1459      H1463   1.083       .  S
C1459      C1460   1.402       .  A
C1460      C1464   1.483       .  S
C1460      C1461   1.407       .  A
C1461      C1462   1.400       .  A
C1461     Br1473   1.919       .  S
C1462      H1465   1.083       .  S
C1464      C1466   1.400       .  A
C1464      C1470   1.409       .  A
C1466      H1471   1.084       .  S
C1466      C1467   1.399       .  A
C1467      C1468   1.416       .  A
C1467     Br1475   1.923       .  S
C1468      C1469   1.405       .  A
C1469      H1472   1.083   1_556  S
C1469      C1470   1.405       .  A
C1470     Br1476   1.917   1_556  S
C1477      C1478   1.418       .  A
C1477      C1482   1.408       .  A
C1478      C1479   1.396       .  A
C1478     Br1494   1.923       .  S
C1479      H1483   1.084       .  S
C1479      C1480   1.398       .  A
C1480      C1484   1.475       .  S
C1480      C1481   1.406       .  A
C1481      C1482   1.401       .  A
C1481     Br1493   1.918   1_565  S
C1482      H1485   1.083   1_565  S
C1484      C1486   1.399       .  A
C1484      C1490   1.405       .  A
C1486      H1491   1.084       .  S
C1486      C1487   1.399       .  A
C1487      C1488   1.417       .  A
C1487     Br1495   1.922       .  S
C1488      C1489   1.408       .  A
C1489      H1492   1.083       .  S
C1489      C1490   1.397       .  A
C1490     Br1496   1.919       .  S
C1497      C1498   1.416       .  A
C1497      C1502   1.409       .  A
C1498      C1499   1.404       .  A
C1498     Br1514   1.919       .  S
C1499      H1503   1.083       .  S
C1499      C1500   1.403       .  A
C1500      C1504   1.480       .  S
C1500      C1501   1.404       .  A
C1501      C1502   1.398       .  A
C1501     Br1513   1.919       .  S
C1502      H1505   1.084       .  S
C1504      C1506   1.400       .  A
C1504      C1510   1.404       .  A
C1506      H1511   1.084       .  S
C1506      C1507   1.404       .  A
C1507      C1508   1.422       .  A
C1507     Br1515   1.923       .  S
C1508      C1509   1.409       .  A
C1509      H1512   1.082       .  S
C1509      C1510   1.398       .  A
C1510     Br1516   1.919       .  S
C1517      C1518   1.414       .  A
C1517      C1522   1.405       .  A
C1518      C1519   1.407       .  A
C1518     Br1534   1.919   1_556  S
C1519      H1523   1.083       .  S
C1519      C1520   1.404       .  A
C1520      C1524   1.479       .  S
C1520      C1521   1.406       .  A
C1521      C1522   1.395       .  A
C1521     Br1533   1.921       .  S
C1522      H1525   1.084       .  S
C1524      C1526   1.400       .  A
C1524      C1530   1.405       .  A
C1526      H1531   1.083       .  S
C1526      C1527   1.402       .  A
C1527      C1528   1.418       .  A
C1527     Br1535   1.921       .  S
C1528      C1529   1.409       .  A
C1529      H1532   1.083       .  S
C1529      C1530   1.398       .  A
C1530     Br1536   1.918       .  S
C1537      C1538   1.424       .  A
C1537      C1542   1.409       .  A
C1538      C1539   1.399       .  A
C1538     Br1554   1.924       .  S
C1539      H1543   1.084       .  S
C1539      C1540   1.397       .  A
C1540      C1544   1.475       .  S
C1540      C1541   1.405       .  A
C1541      C1542   1.397       .  A
C1541     Br1553   1.920       .  S
C1542      H1545   1.083       .  S
C1544      C1546   1.400       .  A
C1544      C1550   1.404       .  A
C1546      H1551   1.084       .  S
C1546      C1547   1.400       .  A
C1547      C1548   1.418       .  A
C1547     Br1555   1.922       .  S
C1548      C1549   1.409       .  A
C1549      H1552   1.083       .  S
C1549      C1550   1.396       .  A
C1550     Br1556   1.919       .  S
C1557      C1558   1.416       .  A
C1557      C1562   1.409       .  A
C1558      C1559   1.397       .  A
C1558     Br1574   1.924       .  S
C1559      H1563   1.084       .  S
C1559      C1560   1.401       .  A
C1560      C1564   1.483       .  S
C1560      C1561   1.408       .  A
C1561      C1562   1.403       .  A
C1561     Br1573   1.918       .  S
C1562      H1565   1.083   1_655  S
C1564      C1566   1.403       .  A
C1564      C1570   1.406       .  A
C1566      H1571   1.083       .  S
C1566      C1567   1.404       .  A
C1567      C1568   1.416       .  A
C1567     Br1575   1.918       .  S
C1568      C1569   1.409       .  A
C1569      H1572   1.083       .  S
C1569      C1570   1.395       .  A
C1570     Br1576   1.921       .  S
C1577      C1578   1.420       .  A
C1577      C1582   1.406       .  A
C1578      C1579   1.403       .  A
C1578     Br1594   1.923       .  S
C1579      H1583   1.083       .  S
C1579      C1580   1.401       .  A
C1580      C1584   1.481       .  S
C1580      C1581   1.408       .  A
C1581      C1582   1.396       .  A
C1581     Br1593   1.921       .  S
C1582      H1585   1.083       .  S
C1584      C1586   1.402       .  A
C1584      C1590   1.407       .  A
C1586      H1591   1.084       .  S
C1586      C1587   1.403       .  A
C1587      C1588   1.416       .  A
C1587     Br1595   1.920       .  S
C1588      C1589   1.405       .  A
C1589      H1592   1.084       .  S
C1589      C1590   1.397       .  A
C1590     Br1596   1.920       .  S
C1597      C1598   1.411       .  A
C1597      C1602   1.405       .  A
C1598      C1599   1.394       .  A
C1598     Br1614   1.920       .  S
C1599      H1603   1.084       .  S
C1599      C1600   1.401       .  A
C1600      C1604   1.480       .  S
C1600      C1601   1.409       .  A
C1601      C1602   1.402       .  A
C1601     Br1613   1.917       .  S
C1602      H1605   1.083       .  S
C1604      C1606   1.403       .  A
C1604      C1610   1.409       .  A
C1606      H1611   1.083       .  S
C1606      C1607   1.400       .  A
C1607      C1608   1.409       .  A
C1607     Br1615   1.918       .  S
C1608      C1609   1.402       .  A
C1609      H1612   1.084       .  S
C1609      C1610   1.397       .  A
C1610     Br1616   1.920       .  S
C1617      C1618   1.416       .  A
C1617      C1622   1.409       .  A
C1618      C1619   1.399       .  A
C1618     Br1634   1.921       .  S
C1619      H1623   1.084       .  S
C1619      C1620   1.400       .  A
C1620      C1624   1.472       .  S
C1620      C1621   1.403       .  A
C1621      C1622   1.395       .  A
C1621     Br1633   1.920       .  S
C1622      H1625   1.082       .  S
C1624      C1626   1.400       .  A
C1624      C1630   1.406       .  A
C1626      H1631   1.084       .  S
C1626      C1627   1.394       .  A
C1627      C1628   1.412       .  A
C1627     Br1635   1.922       .  S
C1628      C1629   1.405       .  A
C1629      H1632   1.083       .  S
C1629      C1630   1.399       .  A
C1630     Br1636   1.917       .  S
C1637      C1638   1.416       .  A
C1637      C1642   1.409       .  A
C1638      C1639   1.400       .  A
C1638     Br1654   1.921       .  S
C1639      H1643   1.084       .  S
C1639      C1640   1.400       .  A
C1640      C1644   1.475       .  S
C1640      C1641   1.403       .  A
C1641      C1642   1.398       .  A
C1641     Br1653   1.918       .  S
C1642      H1645   1.083       .  S
C1644      C1646   1.399       .  A
C1644      C1650   1.405       .  A
C1646      H1651   1.084       .  S
C1646      C1647   1.397       .  A
C1647      C1648   1.417       .  A
C1647     Br1655   1.923       .  S
C1648      C1649   1.407       .  A
C1649      H1652   1.083       .  S
C1649      C1650   1.401       .  A
C1650     Br1656   1.917       .  S
C1657      C1658   1.418       .  A
C1657      C1662   1.407       .  A
C1658      C1659   1.402       .  A
C1658     Br1674   1.921       .  S
C1659      H1663   1.083       .  S
C1659      C1660   1.400       .  A
C1660      C1664   1.478       .  S
C1660      C1661   1.405       .  A
C1661      C1662   1.399       .  A
C1661     Br1673   1.919       .  S
C1662      H1665   1.083       .  S
C1664      C1666   1.403       .  A
C1664      C1670   1.408       .  A
C1666      H1671   1.083       .  S
C1666      C1667   1.401       .  A
C1667      C1668   1.408       .  A
C1667     Br1675   1.918       .  S
C1668      C1669   1.401       .  A
C1669      H1672   1.084       .  S
C1669      C1670   1.399       .  A
C1670     Br1676   1.918       .  S
C1677      C1678   1.412       .  A
C1677      C1682   1.404       .  A
C1678      C1679   1.394       .  A
C1678     Br1694   1.922       .  S
C1679      H1683   1.084       .  S
C1679      C1680   1.400       .  A
C1680      C1684   1.477       .  S
C1680      C1681   1.408       .  A
C1681      C1682   1.402       .  A
C1681     Br1693   1.917       .  S
C1682      H1685   1.083       .  S
C1684      C1686   1.402       .  A
C1684      C1690   1.407       .  A
C1686      H1691   1.084       .  S
C1686      C1687   1.400       .  A
C1687      C1688   1.413       .  A
C1687     Br1695   1.920       .  S
C1688      C1689   1.405       .  A
C1689      H1692   1.083       .  S
C1689      C1690   1.397       .  A
C1690     Br1696   1.919       .  S
C1697      C1698   1.412       .  A
C1697      C1702   1.405       .  A
C1698      C1699   1.403       .  A
C1698     Br1714   1.919       .  S
C1699      H1703   1.083       .  S
C1699      C1700   1.403       .  A
C1700      C1704   1.472       .  S
C1700      C1701   1.403       .  A
C1701      C1702   1.393       .  A
C1701     Br1713   1.920       .  S
C1702      H1705   1.083       .  S
C1704      C1706   1.402       .  A
C1704      C1710   1.406       .  A
C1706      H1711   1.084       .  S
C1706      C1707   1.397       .  A
C1707      C1708   1.406       .  A
C1707     Br1715   1.919       .  S
C1708      C1709   1.402       .  A
C1709      H1712   1.083       .  S
C1709      C1710   1.399       .  A
C1710     Br1716   1.917       .  S
C1717      C1718   1.411       .  A
C1717      C1722   1.405       .  A
C1718      C1719   1.395       .  A
C1718     Br1734   1.921       .  S
C1719      H1723   1.084       .  S
C1719      C1720   1.401       .  A
C1720      C1724   1.484       .  S
C1720      C1721   1.412       .  A
C1721      C1722   1.406       .  A
C1721     Br1733   1.918       .  S
C1722      H1725   1.083       .  S
C1724      C1726   1.404       .  A
C1724      C1730   1.411       .  A
C1726      H1731   1.083       .  S
C1726      C1727   1.403       .  A
C1727      C1728   1.411       .  A
C1727     Br1735   1.919       .  S
C1728      C1729   1.402       .  A
C1729      H1732   1.084       .  S
C1729      C1730   1.398       .  A
C1730     Br1736   1.920       .  S
C1737      C1738   1.411       .  A
C1737      C1742   1.403       .  A
C1738      C1739   1.400       .  A
C1738     Br1754   1.920       .  S
C1739      H1743   1.084       .  S
C1739      C1740   1.404       .  A
C1740      C1744   1.484       .  S
C1740      C1741   1.410       .  A
C1741      C1742   1.402       .  A
C1741     Br1753   1.918       .  S
C1742      H1745   1.083       .  S
C1744      C1746   1.405       .  A
C1744      C1750   1.409       .  A
C1746      H1751   1.083       .  S
C1746      C1747   1.404       .  A
C1747      C1748   1.411       .  A
C1747     Br1755   1.918       .  S
C1748      C1749   1.404       .  A
C1749      H1752   1.084       .  S
C1749      C1750   1.398       .  A
C1750     Br1756   1.921       .  S
C1757      C1758   1.426       .  A
C1757      C1762   1.412       .  A
C1758      C1759   1.402       .  A
C1758     Br1774   1.923       .  S
C1759      H1763   1.084       .  S
C1759      C1760   1.397       .  A
C1760      C1764   1.482       .  S
C1760      C1761   1.405       .  A
C1761      C1762   1.402       .  A
C1761     Br1773   1.919       .  S
C1762      H1765   1.083       .  S
C1764      C1766   1.404       .  A
C1764      C1770   1.406       .  A
C1766      H1771   1.083       .  S
C1766      C1767   1.407       .  A
C1767      C1768   1.414       .  A
C1767     Br1775   1.919       .  S
C1768      C1769   1.405       .  A
C1769      H1772   1.084       .  S
C1769      C1770   1.397       .  A
C1770     Br1776   1.919       .  S
C1777      C1778   1.414       .  A
C1777      C1782   1.407       .  A
C1778      C1779   1.403       .  A
C1778     Br1794   1.919       .  S
C1779      H1783   1.083       .  S
C1779      C1780   1.402       .  A
C1780      C1784   1.472       .  S
C1780      C1781   1.403       .  A
C1781      C1782   1.393       .  A
C1781     Br1793   1.920       .  S
C1782      H1785   1.084       .  S
C1784      C1786   1.398       .  A
C1784      C1790   1.405       .  A
C1786      H1791   1.084       .  S
C1786      C1787   1.398       .  A
C1787      C1788   1.418       .  A
C1787     Br1795   1.922       .  S
C1788      C1789   1.407       .  A
C1789      H1792   1.083       .  S
C1789      C1790   1.398       .  A
C1790     Br1796   1.918       .  S
C1797      C1798   1.419       .  A
C1797      C1802   1.410       .  A
C1798      C1799   1.399       .  A
C1798     Br1814   1.918       .  S
C1799      H1803   1.084       .  S
C1799      C1800   1.399       .  A
C1800      C1804   1.477       .  S
C1800      C1801   1.404       .  A
C1801      C1802   1.399       .  A
C1801     Br1813   1.918       .  S
C1802      H1805   1.083       .  S
C1804      C1806   1.401       .  A
C1804      C1810   1.407       .  A
C1806      H1811   1.084       .  S
C1806      C1807   1.398       .  A
C1807      C1808   1.413       .  A
C1807     Br1815   1.921       .  S
C1808      C1809   1.404       .  A
C1809      H1812   1.083       .  S
C1809      C1810   1.400       .  A
C1810     Br1816   1.918       .  S
C1817      C1818   1.407       .  A
C1817      C1822   1.402       .  A
C1818      C1819   1.398       .  A
C1818     Br1834   1.916       .  S
C1819      H1823   1.083       .  S
C1819      C1820   1.401       .  A
C1820      C1824   1.471       .  S
C1820      C1821   1.408       .  A
C1821      C1822   1.396       .  A
C1821     Br1833   1.920       .  S
C1822      H1825   1.083       .  S
C1824      C1826   1.402       .  A
C1824      C1830   1.408       .  A
C1826      H1831   1.084       .  S
C1826      C1827   1.397       .  A
C1827      C1828   1.406       .  A
C1827     Br1835   1.919       .  S
C1828      C1829   1.399       .  A
C1829      H1832   1.084       .  S
C1829      C1830   1.395       .  A
C1830     Br1836   1.919       .  S
C1837      C1838   1.417       .  A
C1837      C1842   1.405       .  A
C1838      C1839   1.403       .  A
C1838     Br1854   1.921       .  S
C1839      H1843   1.083       .  S
C1839      C1840   1.401       .  A
C1840      C1844   1.478       .  S
C1840      C1841   1.406       .  A
C1841      C1842   1.397       .  A
C1841     Br1853   1.918       .  S
C1842      H1845   1.084       .  S
C1844      C1846   1.400       .  A
C1844      C1850   1.403       .  A
C1846      H1851   1.083       .  S
C1846      C1847   1.405       .  A
C1847      C1848   1.422       .  A
C1847     Br1855   1.921       .  S
C1848      C1849   1.410       .  A
C1849      H1852   1.083       .  S
C1849      C1850   1.394       .  A
C1850     Br1856   1.920       .  S
C1857      C1858   1.415       .  A
C1857      C1862   1.407       .  A
C1858      C1859   1.396       .  A
C1858     Br1874   1.923       .  S
C1859      H1863   1.084       .  S
C1859      C1860   1.403       .  A
C1860      C1864   1.484       .  S
C1860      C1861   1.409       .  A
C1861      C1862   1.401       .  A
C1861     Br1873   1.918       .  S
C1862      H1865   1.083       .  S
C1864      C1866   1.406       .  A
C1864      C1870   1.411       .  A
C1866      H1871   1.083       .  S
C1866      C1867   1.403       .  A
C1867      C1868   1.407       .  A
C1867     Br1875   1.916       .  S
C1868      C1869   1.402       .  A
C1869      H1872   1.084       .  S
C1869      C1870   1.396       .  A
C1870     Br1876   1.921       .  S
C1877      C1878   1.414       .  A
C1877      C1882   1.406       .  A
C1878      C1879   1.394       .  A
C1878     Br1894   1.920       .  S
C1879      H1883   1.084       .  S
C1879      C1880   1.398       .  A
C1880      C1884   1.473       .  S
C1880      C1881   1.407       .  A
C1881      C1882   1.401       .  A
C1881     Br1893   1.918       .  S
C1882      H1885   1.083       .  S
C1884      C1886   1.403       .  A
C1884      C1890   1.407       .  A
C1886      H1891   1.083       .  S
C1886      C1887   1.399       .  A
C1887      C1888   1.406       .  A
C1887     Br1895   1.917       .  S
C1888      C1889   1.402       .  A
C1889      H1892   1.084       .  S
C1889      C1890   1.396       .  A
C1890     Br1896   1.919       .  S
C1897      C1898   1.423       .  A
C1897      C1902   1.410       .  A
C1898      C1899   1.403       .  A
C1898     Br1914   1.923       .  S
C1899      H1903   1.084       .  S
C1899      C1900   1.400       .  A
C1900      C1904   1.480       .  S
C1900      C1901   1.405       .  A
C1901      C1902   1.397       .  A
C1901     Br1913   1.919       .  S
C1902      H1905   1.083       .  S
C1904      C1906   1.403       .  A
C1904      C1910   1.407       .  A
C1906      H1911   1.083       .  S
C1906      C1907   1.402       .  A
C1907      C1908   1.412       .  A
C1907     Br1915   1.919       .  S
C1908      C1909   1.404       .  A
C1909      H1912   1.084       .  S
C1909      C1910   1.397       .  A
C1910     Br1916   1.919       .  S
C1917      C1918   1.420       .  A
C1917      C1922   1.408       .  A
C1918      C1919   1.402       .  A
C1918     Br1934   1.918       .  S
C1919      H1923   1.084       .  S
C1919      C1920   1.398       .  A
C1920      C1924   1.477       .  S
C1920      C1921   1.405       .  A
C1921      C1922   1.398       .  A
C1921     Br1933   1.920       .  S
C1922      H1925   1.083       .  S
C1924      C1926   1.399       .  A
C1924      C1930   1.404       .  A
C1926      H1931   1.084       .  S
C1926      C1927   1.401       .  A
C1927      C1928   1.420       .  A
C1927     Br1935   1.921       .  S
C1928      C1929   1.409       .  A
C1929      H1932   1.083       .  S
C1929      C1930   1.398       .  A
C1930     Br1936   1.918       .  S
C1937      C1938   1.420       .  A
C1937      C1942   1.407       .  A
C1938      C1939   1.402       .  A
C1938     Br1954   1.923       .  S
C1939      H1943   1.084       .  S
C1939      C1940   1.400       .  A
C1940      C1944   1.479       .  S
C1940      C1941   1.405       .  A
C1941      C1942   1.397       .  A
C1941     Br1953   1.919       .  S
C1942      H1945   1.083       .  S
C1944      C1946   1.402       .  A
C1944      C1950   1.407       .  A
C1946      H1951   1.083       .  S
C1946      C1947   1.401       .  A
C1947      C1948   1.413       .  A
C1947     Br1955   1.919       .  S
C1948      C1949   1.404       .  A
C1949      H1952   1.084       .  S
C1949      C1950   1.398       .  A
C1950     Br1956   1.919       .  S
C1957      C1958   1.424       .  A
C1957      C1962   1.411       .  A
C1958      C1959   1.404       .  A
C1958     Br1974   1.923       .  S
C1959      H1963   1.084       .  S
C1959      C1960   1.400       .  A
C1960      C1964   1.478       .  S
C1960      C1961   1.402       .  A
C1961      C1962   1.396       .  A
C1961     Br1973   1.919       .  S
C1962      H1965   1.082       .  S
C1964      C1966   1.403       .  A
C1964      C1970   1.406       .  A
C1966      H1971   1.083       .  S
C1966      C1967   1.402       .  A
C1967      C1968   1.411       .  A
C1967     Br1975   1.918       .  S
C1968      C1969   1.405       .  A
C1969      H1972   1.084       .  S
C1969      C1970   1.398       .  A
C1970     Br1976   1.919       .  S
C1977      C1978   1.419       .  A
C1977      C1982   1.408       .  A
C1978      C1979   1.400       .  A
C1978     Br1994   1.921       .  S
C1979      H1983   1.084       .  S
C1979      C1980   1.399       .  A
C1980      C1984   1.476       .  S
C1980      C1981   1.405       .  A
C1981      C1982   1.398       .  A
C1981     Br1993   1.919       .  S
C1982      H1985   1.083       .  S
C1984      C1986   1.401       .  A
C1984      C1990   1.405       .  A
C1986      H1991   1.083       .  S
C1986      C1987   1.403       .  A
C1987      C1988   1.416       .  A
C1987     Br1995   1.919       .  S
C1988      C1989   1.406       .  A
C1989      H1992   1.083       .  S
C1989      C1990   1.395       .  A
C1990     Br1996   1.919       .  S
C1997      C1998   1.417       .  A
C1997      C2002   1.407       .  A
C1998      C1999   1.400       .  A
C1998     Br2014   1.922       .  S
C1999      H2003   1.084       .  S
C1999      C2000   1.401       .  A
C2000      C2004   1.481       .  S
C2000      C2001   1.407       .  A
C2001      C2002   1.399       .  A
C2001     Br2013   1.918       .  S
C2002      H2005   1.083       .  S
C2004      C2006   1.403       .  A
C2004      C2010   1.407       .  A
C2006      H2011   1.083       .  S
C2006      C2007   1.404       .  A
C2007      C2008   1.415       .  A
C2007     Br2015   1.920       .  S
C2008      C2009   1.404       .  A
C2009      H2012   1.082       .  S
C2009      C2010   1.395       .  A
C2010     Br2016   1.921       .  S
