geometry optimzed in LAMMPS
_audit_creation_date              2020-11-30 
_audit_creation_method            'lammps2cif' 
_symmetry_space_group_name_H-M    'P1' 
_symmetry_Int_Tables_number       1 
_symmetry_cell_setting            triclinic 
loop_ 
_symmetry_equiv_pos_as_xyz 
  x,y,z 
_cell_length_a                    36.39455144916797 
_cell_length_b                    49.46542654185312 
_cell_length_c                    31.553938597839817 
_cell_angle_alpha                 89.73237061708238 
_cell_angle_beta                  90.11360372560672 
_cell_angle_gamma                 89.83409085836051 
loop_ 
_atom_site_label 
_atom_site_type_symbol 
_atom_site_fract_x 
_atom_site_fract_y 
_atom_site_fract_z 
_atom_site_charge 
In1        In  0.90394758  0.08152346  0.00449706     1.36870
C2          C  0.91853007  0.07344242  0.08610338     0.77890
O3          O  0.84964005  0.10106305  0.01684140    -0.60550
O4          O  0.85099788  0.06688654  0.97626028    -0.51460
C5          C  0.92392426  0.12456968  0.96055734     0.70560
O6          O  0.92092126  0.12494631  0.00040003    -0.46320
C7          C  0.94863845  0.04192063  0.97881375     0.75260
O8          O  0.93605999  0.08996381  0.06343289    -0.58180
O9          O  0.91461527  0.03838406  0.98424649    -0.48270
O10         O  0.89151092  0.06258179  0.06808798    -0.54610
C11         C  0.83175190  0.08484558  0.99406704     0.85440
O12         O  0.91538473  0.10255967  0.94311009    -0.56500
O13         O  0.95876183  0.06597318  0.98402538    -0.59800
In14       In  0.60038287  0.08449262  0.99851781     1.36870
C15         C  0.58995844  0.07184734  0.07976192     0.77890
O16         O  0.54372339  0.06920450  0.98451875    -0.60550
O17         O  0.58896092  0.04459171  0.96767955    -0.51460
C18         C  0.58028645  0.12729350  0.95332853     0.70560
O19         O  0.57473867  0.12566847  0.99274167    -0.46320
C20         C  0.67315252  0.08569204  0.99400177     0.75260
O21         O  0.58272987  0.09513675  0.06536577    -0.58180
O22         O  0.65386239  0.06926308  0.97320308    -0.48270
O23         O  0.60411611  0.05618173  0.05302973    -0.54610
C24         C  0.55449963  0.04683843  0.96998792     0.85440
O25         O  0.59643799  0.10724274  0.93723417    -0.56500
O26         O  0.65503984  0.10237975  0.01577642    -0.59800
In27       In  0.50135955  0.00175874  0.29662254     1.36870
C28         C  0.46599031  0.47237964  0.23910213     0.77890
O29         O  0.50800499  0.03518619  0.24874747    -0.60550
O30         O  0.55422562  0.01064825  0.26261199    -0.51460
C31         C  0.47227339  0.03832687  0.34830136     0.70560
O32         O  0.45432990  0.02773599  0.31853238    -0.46320
C33         C  0.52618051  0.46366918  0.34873646     0.75260
O34         O  0.44966026  0.48893153  0.26295730    -0.58180
O35         O  0.54579480  0.48329950  0.33692281    -0.48270
O36         O  0.49988490  0.47006023  0.24657821    -0.54610
C37         C  0.54049219  0.02890720  0.23956865     0.85440
O38         O  0.50466271  0.02965473  0.35248589    -0.56500
O39         O  0.49350129  0.46406886  0.33526683    -0.59800
In40       In  0.10070041  0.41600935  0.01145572     1.36870
C41         C  0.08708112  0.42343233  0.09332873     0.77890
O42         O  0.15709002  0.39905448  0.02352835    -0.60550
O43         O  0.15207217  0.43403676  0.98450405    -0.51460
C44         C  0.08245304  0.37325980  0.96513613     0.70560
O45         O  0.08869441  0.37162199  0.00437148    -0.46320
C46         C  0.05482211  0.45552982  0.98821573     0.75260
O47         O  0.07080808  0.40585340  0.07148585    -0.58180
O48         O  0.08913376  0.45705463  0.98281407    -0.48270
O49         O  0.11254775  0.43563117  0.07430953    -0.54610
C50         C  0.17316016  0.41712897  0.00223325     0.85440
O51         O  0.08614606  0.39663440  0.94970521    -0.56500
O52         O  0.04418563  0.43323330  0.00312359    -0.59800
In53       In  0.40436387  0.42145002  0.99754004     1.36870
C54         C  0.41596201  0.43052368  0.07944342     0.77890
O55         O  0.46053754  0.43864220  0.98969638    -0.60550
O56         O  0.41588660  0.46104959  0.96429981    -0.51460
C57         C  0.42505432  0.38013667  0.94921120     0.70560
O58         O  0.43027646  0.38067469  0.98877149    -0.46320
C59         C  0.33155156  0.41806989  0.99449162     0.75260
O60         O  0.42537093  0.40873017  0.06177180    -0.58180
O61         O  0.34900671  0.43746918  0.97804807    -0.48270
O62         O  0.39840176  0.44660240  0.05580160    -0.54610
C63         C  0.44996102  0.46014252  0.97189776     0.85440
O64         O  0.40853174  0.40065689  0.93477512    -0.56500
O65         O  0.35139563  0.40041092  0.01223979    -0.59800
In66       In  0.00140992  0.00335603  0.30503935     1.36870
C67         C  0.97013410  0.03484002  0.24747258     0.77890
O68         O  0.99314692  0.03499718  0.35384021    -0.60550
O69         O  0.04776351  0.02673500  0.33413838    -0.51460
C70         C  0.97776778  0.46564998  0.35773521     0.70560
O71         O  0.95609991  0.48220006  0.33992100    -0.46320
C72         C  0.03067588  0.47287396  0.24482955     0.75260
O73         O  0.95120359  0.01915871  0.27046884    -0.58180
O74         O  0.05044830  0.48694064  0.26931955    -0.48270
O75         O  0.00383759  0.03552792  0.25653169    -0.54610
C76         C  0.02664516  0.04121481  0.35641303     0.85440
O77         O  0.01138695  0.46929871  0.34998292    -0.56500
O78         O  0.99695233  0.47298073  0.25382336    -0.59800
In79       In  0.49994312  0.25261422  0.79614988     1.36870
C80         C  0.53347892  0.28338889  0.73858716     0.77890
O81         O  0.50228947  0.22325649  0.74357364    -0.60550
O82         O  0.44939242  0.23634621  0.76378246    -0.51460
C83         C  0.52430575  0.21466538  0.84920354     0.70560
O84         O  0.54527523  0.23202570  0.83247258    -0.46320
C85         C  0.47257910  0.28956082  0.84793010     0.75260
O86         O  0.55116884  0.26730692  0.76239270    -0.58180
O87         O  0.45307490  0.27753523  0.82087749    -0.48270
O88         O  0.49966790  0.28449159  0.74647174    -0.54610
C89         C  0.46805127  0.22296219  0.73737601     0.85440
O90         O  0.49100915  0.21707080  0.83863007    -0.56500
O91         O  0.50575731  0.28222665  0.84918392    -0.59800
In92       In  0.09977471  0.17040191  0.50635792     1.36870
C93         C  0.09032251  0.17834426  0.58869841     0.77890
O94         O  0.15451897  0.15136845  0.51874559    -0.60550
O95         O  0.15220424  0.18611179  0.47924219    -0.51460
C96         C  0.08003733  0.12810021  0.46093935     0.70560
O97         O  0.07397364  0.12965077  0.50019075    -0.46320
C98         C  0.05253581  0.20865295  0.48190686     0.75260
O99         O  0.07941752  0.15724897  0.57031670    -0.58180
O100        O  0.08687961  0.21198565  0.48086066    -0.48270
O101        O  0.10818592  0.19438072  0.56560799    -0.54610
C102        C  0.17203649  0.16817863  0.49638135     0.85440
O103        O  0.09654556  0.14805112  0.44488407    -0.56500
O104        O  0.04295272  0.18520150  0.49253751    -0.59800
In105      In  0.40403872  0.16997606  0.49729815     1.36870
C106        C  0.41776021  0.18148523  0.57769853     0.77890
O107        O  0.46054819  0.18418136  0.48277831    -0.60550
O108        O  0.41601486  0.20966043  0.46514143    -0.51460
C109        C  0.42419366  0.12849833  0.44971038     0.70560
O110        O  0.43135609  0.12974543  0.48887108    -0.46320
C111        C  0.33118062  0.16751929  0.49485025     0.75260
O112        O  0.42015085  0.15757797  0.56404915    -0.58180
O113        O  0.34923811  0.18552472  0.47557606    -0.48270
O114        O  0.40606228  0.19858360  0.55127719    -0.54610
C115        C  0.45048133  0.20665113  0.46772394     0.85440
O116        O  0.40576469  0.14820661  0.43558234    -0.56500
O117        O  0.35076070  0.15071474  0.51484862    -0.59800
In118      In  0.90464310  0.33559565  0.50800707     1.36870
C119        C  0.91784557  0.32524739  0.58923597     0.77890
O120        O  0.84904111  0.35111215  0.52579787    -0.60550
O121        O  0.85233649  0.32168257  0.47748112    -0.51460
C122        C  0.92362335  0.37840114  0.46196601     0.70560
O123        O  0.92009819  0.37953479  0.50171344    -0.46320
C124        C  0.95094954  0.29756559  0.48243874     0.75260
O125        O  0.92873703  0.34660276  0.57115989    -0.58180
O126        O  0.91653925  0.29535811  0.47829586    -0.48270
O127        O  0.89797980  0.31033334  0.56646466    -0.54610
C128        C  0.83192423  0.33657089  0.49967586     0.85440
O129        O  0.91710028  0.35555416  0.44624416    -0.56500
O130        O  0.96129112  0.31957669  0.49841193    -0.59800
In131      In  0.60012333  0.33234543  0.49710430     1.36870
C132        C  0.58780926  0.32307333  0.57880486     0.77890
O133        O  0.54357158  0.31738575  0.48524355    -0.60550
O134        O  0.58780874  0.29101713  0.47091628    -0.51460
C135        C  0.58196574  0.37411619  0.44802009     0.70560
O136        O  0.58259405  0.37548282  0.48801508    -0.46320
C137        C  0.67275343  0.33627464  0.49404610     0.75260
O138        O  0.57445259  0.34325577  0.55934495    -0.58180
O139        O  0.65518987  0.31974537  0.47123604    -0.48270
O140        O  0.60865567  0.30850850  0.55667851    -0.54610
C141        C  0.55333580  0.29429658  0.47293196     0.85440
O142        O  0.59113473  0.35137927  0.43355367    -0.56500
O143        O  0.65279383  0.35068633  0.51742998    -0.59800
In144      In  0.00278210  0.25058053  0.80517857     1.36870
C145        C  0.03335846  0.22119110  0.74450712     0.77890
O146        O  0.00993398  0.21447557  0.84726073    -0.60550
O147        O  0.95662604  0.23131000  0.84124515    -0.51460
C148        C  0.02935574  0.28761994  0.85739879     0.70560
O149        O  0.04997607  0.27090630  0.83865545    -0.46320
C150        C  0.96836518  0.28131196  0.74827085     0.75260
O151        O  0.05258815  0.23554283  0.76915051    -0.58180
O152        O  0.95195110  0.26352400  0.76990024    -0.48270
O153        O  0.99961894  0.22109113  0.75303337    -0.54610
C154        C  0.97637775  0.21276676  0.85685690     0.85440
O155        O  0.99548514  0.28432735  0.85086676    -0.56500
O156        O  0.00184522  0.28407539  0.75771643    -0.59800
C157        C  0.97345991  0.31478859  0.68998893    -0.11950
C158        C  0.95134639  0.29638282  0.71237948     0.05050
C159        C  0.91621949  0.28995028  0.69595646    -0.07240
C160        C  0.90564419  0.30022937  0.65617326    -0.07990
C161        C  0.92880329  0.31731352  0.63274266    -0.02540
C162        C  0.96298451  0.32495158  0.65024200     0.04280
N163        N  0.98895706  0.34079415  0.62668352     0.66790
H164        H  0.00051048  0.31984343  0.70195345     0.15690
H165        H  0.87909996  0.29465778  0.64326532     0.15400
N166        N  0.89127857  0.27270929  0.71853292     0.74490
O167        O  0.00689379  0.35913661  0.64509254    -0.38960
O168        O  0.99913222  0.33311030  0.59044035    -0.38900
O169        O  0.88225340  0.27839159  0.75606790    -0.39610
O170        O  0.87353871  0.25477112  0.69891723    -0.39670
C171        C  0.77124537  0.35066001  0.52756122    -0.11950
C172        C  0.79126848  0.33688204  0.49639281     0.05050
C173        C  0.77195495  0.32412120  0.46311559    -0.07240
C174        C  0.73343006  0.32487220  0.46239825    -0.07990
C175        C  0.71342331  0.33814992  0.49415184    -0.02540
C176        C  0.73283350  0.35167536  0.52666068     0.04280
N177        N  0.71423801  0.36619949  0.55947488     0.66790
H178        H  0.78551624  0.36084693  0.55307562     0.15690
H179        H  0.71906955  0.31460490  0.43704675     0.15400
N180        N  0.79077594  0.31043879  0.42966773     0.74490
O181        O  0.72057253  0.36037978  0.59779652    -0.38960
O182        O  0.69794407  0.38807847  0.55064002    -0.38900
O183        O  0.80533849  0.28766792  0.43671612    -0.39610
O184        O  0.78643336  0.31831768  0.39188165    -0.39670
C185        C  0.46394217  0.25537324  0.45952086    -0.11950
C186        C  0.47686860  0.22865431  0.45849980     0.05050
C187        C  0.51523096  0.22392832  0.45653690    -0.07240
C188        C  0.53951524  0.24586249  0.45945169    -0.07990
C189        C  0.52655914  0.27244242  0.46405507    -0.02540
C190        C  0.48817473  0.27718221  0.46285405     0.04280
N191        N  0.47301672  0.30375651  0.46721196     0.66790
H192        H  0.43465875  0.25936161  0.46108749     0.15690
H193        H  0.56883360  0.24197826  0.45927482     0.15400
N194        N  0.53000612  0.19710176  0.45229875     0.74490
O195        O  0.45412711  0.31367335  0.43734453    -0.38960
O196        O  0.47092649  0.31419583  0.50356154    -0.38900
O197        O  0.51625814  0.18092789  0.42584191    -0.39610
O198        O  0.55941709  0.19062911  0.47111302    -0.39670
C199        C  0.03913791  0.25741330  0.47017271    -0.11950
C200        C  0.02587878  0.23089960  0.47433661     0.05050
C201        C  0.98745038  0.22664234  0.47460296    -0.07240
C202        C  0.96350333  0.24880291  0.47324668    -0.07990
C203        C  0.97686088  0.27536044  0.47267601    -0.02540
C204        C  0.01517078  0.27970000  0.46910832     0.04280
N205        N  0.03019303  0.30641957  0.46465725     0.66790
H206        H  0.06849792  0.26093538  0.46880897     0.15690
H207        H  0.93421817  0.24515644  0.47580943     0.15400
N208        N  0.97207173  0.20016678  0.47863080     0.74490
O209        O  0.06075726  0.31209734  0.48135076    -0.38960
O210        O  0.01547044  0.32323340  0.43958309    -0.38900
O211        O  0.97055014  0.18911699  0.51472494    -0.39610
O212        O  0.95275564  0.19085086  0.44885779    -0.39670
C213        C  0.04005983  0.18764299  0.63704357    -0.11950
C214        C  0.07807364  0.18571443  0.63148806     0.05050
C215        C  0.10194131  0.19324326  0.66495991    -0.07240
C216        C  0.08656081  0.20362794  0.70255221    -0.07990
C217        C  0.04836582  0.20678046  0.70718304    -0.02540
C218        C  0.02498998  0.19808323  0.67409793     0.04280
N219        N  0.98593065  0.20131017  0.67618827     0.66790
H220        H  0.02170431  0.18205004  0.61140711     0.15690
H221        H  0.10462862  0.21004591  0.72790508     0.15400
N222        N  0.14123379  0.18986971  0.66232034     0.74490
O223        O  0.96984949  0.21693052  0.65035688    -0.38960
O224        O  0.96716076  0.18522931  0.69845327    -0.38900
O225        O  0.15803098  0.19289618  0.62769802    -0.39610
O226        O  0.15970702  0.18516794  0.69547600    -0.39670
C227        C  0.27126245  0.18680867  0.47183808    -0.11950
C228        C  0.29044485  0.16655774  0.49412085     0.05050
C229        C  0.27022591  0.14586764  0.51451403    -0.07240
C230        C  0.23179082  0.14636135  0.51305674    -0.07990
C231        C  0.21258850  0.16712109  0.49201649    -0.02540
C232        C  0.23277734  0.18718247  0.47006481     0.04280
N233        N  0.21498251  0.20797249  0.44565460     0.66790
H234        H  0.28629141  0.20248258  0.45520429     0.15690
H235        H  0.21684374  0.13068187  0.52979922     0.15400
N236        N  0.28791834  0.12446039  0.53756959     0.74490
O237        O  0.22500777  0.23224553  0.44958074    -0.38960
O238        O  0.19486265  0.20160243  0.41465408    -0.38900
O239        O  0.30400050  0.12959108  0.57207360    -0.39610
O240        O  0.28067824  0.10021010  0.52857805    -0.39670
C241        C  0.58581489  0.29127890  0.68919199    -0.11950
C242        C  0.55001772  0.29800925  0.70208314     0.05050
C243        C  0.52884337  0.31565554  0.67620216    -0.07240
C244        C  0.54272520  0.32427806  0.63708245    -0.07990
C245        C  0.57736616  0.31596934  0.62280779    -0.02540
C246        C  0.59960958  0.29986487  0.64982971     0.04280
N247        N  0.63610452  0.29198080  0.63811867     0.66790
H248        H  0.60257942  0.27800354  0.70872428     0.15690
H249        H  0.52563847  0.33699462  0.61702953     0.15400
N250        N  0.49283936  0.32453253  0.68841987     0.74490
O251        O  0.66263992  0.29802004  0.66205608    -0.38960
O252        O  0.64070299  0.27402059  0.61034099    -0.38900
O253        O  0.48828807  0.33642858  0.72333523    -0.39610
O254        O  0.46680543  0.32410617  0.66192340    -0.39670
C255        C  0.47062611  0.21892778  0.66087842    -0.11950
C256        C  0.45281090  0.21122567  0.69832130     0.05050
C257        C  0.42340465  0.19247265  0.69653064    -0.07240
C258        C  0.41321386  0.18180027  0.65675087    -0.07990
C259        C  0.43113574  0.18995880  0.61950369    -0.02540
C260        C  0.46027483  0.20855498  0.62172876     0.04280
N261        N  0.48043759  0.21644445  0.58460744     0.66790
H262        H  0.49333131  0.23308308  0.66214554     0.15690
H263        H  0.39045709  0.16776545  0.65460754     0.15400
N264        N  0.40437222  0.18349991  0.73399028     0.74490
O265        O  0.49061251  0.24065148  0.57988122    -0.38960
O266        O  0.49299270  0.19859924  0.56009137    -0.39020
O267        O  0.39702525  0.19977974  0.76345327    -0.39610
O268        O  0.39082674  0.16004182  0.73543423    -0.39670
C269        C  0.94210128  0.44932012  0.41953781    -0.11950
C270        C  0.96473260  0.44338625  0.38485159     0.05050
C271        C  0.97256396  0.41616340  0.37495399    -0.07240
C272        C  0.95773033  0.39557164  0.40013873    -0.07990
C273        C  0.93588657  0.40138335  0.43554891    -0.02540
C274        C  0.92751918  0.42863841  0.44517333     0.04280
N275        N  0.90317561  0.43565544  0.47928789     0.66790
H276        H  0.93534040  0.47021698  0.42629509     0.15690
H277        H  0.96418200  0.37473751  0.39253919     0.15400
N278        N  0.99408953  0.40891703  0.33858281     0.74490
O279        O  0.90782570  0.45741349  0.49933917    -0.38960
O280        O  0.87415439  0.42228883  0.48545429    -0.38900
O281        O  0.02624604  0.41797054  0.33426436    -0.39610
O282        O  0.98356150  0.38994866  0.31488243    -0.39670
C283        C  0.02973291  0.10215237  0.42956475    -0.11950
C284        C  0.06757368  0.10513088  0.43552886     0.05050
C285        C  0.09230674  0.08748622  0.41494382    -0.07240
C286        C  0.07808497  0.06686419  0.38919007    -0.07990
C287        C  0.04004495  0.06380638  0.38301553    -0.02540
C288        C  0.01566827  0.08231167  0.40259582     0.04280
N289        N  0.97697722  0.08244578  0.39363248     0.66790
H290        H  0.01100477  0.11637314  0.44430639     0.15690
H291        H  0.09692066  0.05287222  0.37420759     0.15400
N292        N  0.13153709  0.08982481  0.42024539     0.74490
O293        O  0.95427238  0.08558149  0.42341615    -0.38960
O294        O  0.96601271  0.08518363  0.35585691    -0.38900
O295        O  0.14507647  0.09864038  0.45434302    -0.39610
O296        O  0.15298149  0.08101071  0.39205855    -0.39670
C297        C  0.45167454  0.33395976  0.94251914    -0.11950
C298        C  0.43712642  0.35710596  0.92245985     0.05050
C299        C  0.43360855  0.35728340  0.87771948    -0.07240
C300        C  0.44325452  0.33416021  0.85470832    -0.07990
C301        C  0.45821633  0.31135670  0.87480984    -0.02540
C302        C  0.46250604  0.31109627  0.91932332     0.04280
N303        N  0.47684116  0.28778116  0.94150846     0.66790
H304        H  0.45423248  0.33350976  0.97674161     0.15690
H305        H  0.44110820  0.33458367  0.82039816     0.15400
N306        N  0.42233630  0.38103226  0.85480792     0.74490
O307        O  0.49198542  0.29045992  0.97727961    -0.38960
O308        O  0.47133398  0.26423659  0.92761824    -0.38900
O309        O  0.44052371  0.40258937  0.85856524    -0.39610
O310        O  0.39971621  0.37899136  0.82461529    -0.39670
C311        C  0.08251676  0.45102027  0.20557901    -0.11950
C312        C  0.04516504  0.45830064  0.20737607     0.05050
C313        C  0.02200726  0.45191803  0.17273496    -0.07240
C314        C  0.03639060  0.43804003  0.13806139    -0.07990
C315        C  0.07380163  0.43174952  0.13540784    -0.02540
C316        C  0.09735374  0.43783904  0.16984272     0.04280
N317        N  0.13571532  0.43038490  0.16952705     0.66790
H318        H  0.10017678  0.45562562  0.23227667     0.15690
H319        H  0.01865116  0.43426320  0.11105559     0.15400
N320        N  0.98478600  0.46152540  0.17014390     0.74490
O321        O  0.15789001  0.44120937  0.19513547    -0.38960
O322        O  0.14697200  0.41108010  0.14691062    -0.38900
O323        O  0.97822326  0.48648288  0.17365038    -0.39610
O324        O  0.96002831  0.44633879  0.15555352    -0.39670
C325        C  0.03868374  0.35495403  0.91345116    -0.11950
C326        C  0.06947980  0.35038038  0.93926991     0.05050
C327        C  0.08783675  0.32512925  0.93738035    -0.07240
C328        C  0.07474802  0.30522604  0.90945768    -0.07990
C329        C  0.04346021  0.30970374  0.88427764    -0.02540
C330        C  0.02548094  0.33507426  0.88592315     0.04280
N331        N  0.99500284  0.34152631  0.85855835     0.66790
H332        H  0.02510999  0.37450046  0.91416510     0.15690
H333        H  0.08860867  0.28582418  0.90813779     0.15400
N334        N  0.12041599  0.31962463  0.96182410     0.74490
O335        O  0.96910575  0.35622682  0.87188289    -0.38960
O336        O  0.99655749  0.33612343  0.81953109    -0.38900
O337        O  0.12107661  0.32425125  0.00109809    -0.39610
O338        O  0.14634751  0.30618012  0.94567257    -0.39670
C339        C  0.27246780  0.43949313  0.01210931    -0.11950
C340        C  0.29104558  0.41716104  0.99521326     0.05050
C341        C  0.27059113  0.39504697  0.97952949    -0.07240
C342        C  0.23201479  0.39598312  0.98140556    -0.07990
C343        C  0.21349479  0.41829101  0.99856050    -0.02540
C344        C  0.23397910  0.44033427  0.01435730     0.04280
N345        N  0.21666152  0.46286305  0.03508804     0.66790
H346        H  0.28819465  0.45635907  0.02428569     0.15690
H347        H  0.21624569  0.37900239  0.96966792     0.15400
N348        N  0.28804924  0.37213244  0.96009206     0.74490
O349        O  0.23172928  0.47344020  0.06702625    -0.38960
O350        O  0.18893839  0.47430984  0.01890660    -0.38900
O351        O  0.31426675  0.36007460  0.97840432    -0.39610
O352        O  0.27386924  0.36154156  0.92763242    -0.39670
C353        C  0.54389282  0.41583487  0.35603106    -0.11950
C354        C  0.54072672  0.44132467  0.37479169     0.05050
C355        C  0.55345705  0.44514842  0.41663194    -0.07240
C356        C  0.56767877  0.42294361  0.43924906    -0.07990
C357        C  0.57040852  0.39720848  0.42082835    -0.02540
C358        C  0.55956331  0.39394695  0.37799967     0.04280
N359        N  0.56455379  0.36888218  0.35605001     0.66790
H360        H  0.53528192  0.41317657  0.32337086     0.15690
H361        H  0.57611084  0.42573333  0.47188974     0.15400
N362        N  0.55121694  0.47102177  0.43707007     0.74490
O363        O  0.53845875  0.35925203  0.33451703    -0.38960
O364        O  0.59663885  0.35985771  0.35033656    -0.38900
O365        O  0.52428616  0.48652605  0.43019468    -0.39610
O366        O  0.57437704  0.47740942  0.46510505    -0.39670
C367        C  0.44900371  0.08194601  0.44286699    -0.11950
C368        C  0.43629077  0.10563212  0.42288059     0.05050
C369        C  0.43433413  0.10649312  0.37801347    -0.07240
C370        C  0.44424159  0.08356228  0.35464713    -0.07990
C371        C  0.45732878  0.06015755  0.37476848    -0.02540
C372        C  0.45927521  0.05915893  0.41937251     0.04280
N373        N  0.46948401  0.03474211  0.44121222     0.66790
H374        H  0.44993805  0.08083294  0.47717765     0.15690
H375        H  0.44360854  0.08451610  0.32029439     0.15400
N376        N  0.42431273  0.13069967  0.35548970     0.74490
O377        O  0.48649252  0.03585670  0.47607756    -0.38960
O378        O  0.45663042  0.01237885  0.42914702    -0.38900
O379        O  0.44195854  0.15225248  0.36181379    -0.39610
O380        O  0.40302692  0.12934988  0.32393397    -0.39670
C381        C  0.40459215  0.45694193  0.14481880    -0.11950
C382        C  0.42602526  0.43769483  0.12347059     0.05050
C383        C  0.45796400  0.42739146  0.14343429    -0.07240
C384        C  0.46843550  0.43745088  0.18310744    -0.07990
C385        C  0.44829840  0.45797705  0.20327914    -0.02540
C386        C  0.41499157  0.46691993  0.18464211     0.04280
N387        N  0.39212435  0.48677067  0.20462853     0.66790
H388        H  0.37966894  0.46459588  0.13012951     0.15690
H389        H  0.49403718  0.43038207  0.19692235     0.15400
N390        N  0.48190583  0.40860118  0.12259113     0.74490
O391        O  0.37922214  0.00619657  0.18313063    -0.38960
O392        O  0.37935080  0.48220384  0.24112080    -0.38900
O393        O  0.49598114  0.41476108  0.08731732    -0.39610
O394        O  0.49453207  0.38856180  0.14287308    -0.39670
C395        C  0.51345771  0.47670834  0.96098773    -0.11950
C396        C  0.47575090  0.48263944  0.96322849     0.05050
C397        C  0.46425826  0.00995134  0.96100489    -0.07240
C398        C  0.49072772  0.03049964  0.95911468    -0.07990
C399        C  0.52853079  0.02460554  0.96011566    -0.02540
C400        C  0.53990166  0.49723586  0.95895095     0.04280
N401        N  0.57801385  0.48979624  0.95782781     0.66790
H402        H  0.52259779  0.45583383  0.96174900     0.15690
H403        H  0.48156347  0.05135862  0.95993186     0.15400
N404        N  0.42629123  0.01747538  0.96443163     0.74490
O405        O  0.59007472  0.47171791  0.98261835    -0.38960
O406        O  0.59785800  0.99760560  0.92740202    -0.38900
O407        O  0.40834059  0.01097029  0.99710200    -0.39610
O408        O  0.41309715  0.03502339  0.93948126    -0.39670
C409        C  0.58008117  0.03413577  0.12976434    -0.11950
C410        C  0.58082854  0.06224268  0.12312832     0.05050
C411        C  0.57152375  0.07950396  0.15714855    -0.07240
C412        C  0.56066281  0.06819917  0.19615067    -0.07990
C413        C  0.55905952  0.04007872  0.20199672    -0.02540
C414        C  0.56923114  0.02286618  0.16843455     0.04280
N415        N  0.56559409  0.49399911  0.17159053     0.66790
H416        H  0.58689244  0.02053953  0.10410412     0.15690
H417        H  0.55216822  0.08145994  0.22160479     0.15400
N418        N  0.57262521  0.10832997  0.15290678     0.74490
O419        O  0.55103889  0.48098764  0.14162323    -0.38960
O420        O  0.58185864  0.48113543  0.20074400    -0.38900
O421        O  0.54924168  0.12024221  0.12982595    -0.39610
O422        O  0.59112617  0.12197808  0.17901453    -0.39670
C423        C  0.52937217  0.15195410  0.91975211    -0.11950
C424        C  0.56714636  0.15018621  0.92757670     0.05050
C425        C  0.59092835  0.17020238  0.91113248    -0.07240
C426        C  0.57587616  0.19140318  0.88672186    -0.07990
C427        C  0.53797882  0.19299317  0.87806835    -0.02540
C428        C  0.51446161  0.17306989  0.89547513     0.04280
N429        N  0.47546668  0.17383764  0.88910765     0.66790
H430        H  0.51116480  0.13672375  0.93283856     0.15690
H431        H  0.59415291  0.20653102  0.87358769     0.15400
N432        N  0.62993016  0.16979620  0.91934164     0.74490
O433        O  0.45902390  0.15303241  0.87603981    -0.38960
O434        O  0.45689826  0.19309470  0.90422701    -0.38900
O435        O  0.64722823  0.14775776  0.92300806    -0.39610
O436        O  0.64782058  0.19162842  0.91987643    -0.39670
C437        C  0.01318863  0.02581599  0.97533788    -0.11950
C438        C  0.97557661  0.01974000  0.97145623     0.05050
C439        C  0.96494927  0.49236326  0.96799962    -0.07240
C440        C  0.99159646  0.47192588  0.97253722    -0.07990
C441        C  0.02881690  0.47804027  0.97949516    -0.02540
C442        C  0.03976386  0.00543544  0.98018418     0.04280
N443        N  0.07688707  0.01312789  0.98964961     0.66790
H444        H  0.02185176  0.04667962  0.97827408     0.15690
H445        H  0.98307804  0.45097858  0.97083477     0.15400
N446        N  0.92744709  0.48490354  0.96023344     0.74490
O447        O  0.09169498  0.03215292  0.96913337    -0.38960
O448        O  0.09198615  0.50485162  0.02337473    -0.38900
O449        O  0.90968252  0.49610369  0.93053070    -0.39610
O450        O  0.91391486  0.46449261  0.97853688    -0.39670
C451        C  0.98020839  0.05034109  0.17493720    -0.11950
C452        C  0.95593361  0.04874609  0.20930073     0.05050
C453        C  0.91883786  0.05679902  0.20380479    -0.07240
C454        C  0.90682268  0.06492041  0.16310271    -0.07990
C455        C  0.93118966  0.06546160  0.12865167    -0.02540
C456        C  0.96809791  0.05770173  0.13462889     0.04280
N457        N  0.99253258  0.05421626  0.09937273     0.66790
H458        H  0.00834402  0.04338611  0.17850108     0.15690
H459        H  0.87853399  0.07119645  0.15828912     0.15400
N460        N  0.89367525  0.05770343  0.23893867     0.74490
O461        O  0.02607316  0.06021959  0.10300495    -0.38960
O462        O  0.98242849  0.04020721  0.06816448    -0.38900
O463        O  0.90500619  0.06370091  0.27554762    -0.39610
O464        O  0.85949243  0.05603417  0.23258462    -0.39670
C465        C  0.98700263  0.17152117  0.90037237    -0.11950
C466        C  0.96192606  0.19051559  0.88380030     0.05050
C467        C  0.92410536  0.18762603  0.89336334    -0.07240
C468        C  0.91265546  0.16649395  0.91998145    -0.07990
C469        C  0.93782432  0.14768590  0.93623461    -0.02540
C470        C  0.97551150  0.15004680  0.92630245     0.04280
N471        N  0.00233193  0.13081222  0.94161049     0.66790
H472        H  0.01602091  0.17343666  0.89322653     0.15690
H473        H  0.88362356  0.16414685  0.92682432     0.15400
N474        N  0.89677109  0.20511184  0.87520042     0.74490
O475        O  0.03108725  0.12622326  0.92046106    -0.38960
O476        O  0.99909013  0.12004517  0.97775073    -0.38900
O477        O  0.89208822  0.20546275  0.83554647    -0.39610
O478        O  0.87262701  0.21557512  0.89869967    -0.39670
C479        C  0.77208553  0.06156406  0.98694259    -0.11950
C480        C  0.79128597  0.08600295  0.99028335     0.05050
C481        C  0.77139563  0.11051079  0.99417976    -0.07240
C482        C  0.73285052  0.10973057  0.99607071    -0.07990
C483        C  0.71372391  0.08522129  0.99333008    -0.02540
C484        C  0.73362650  0.06076601  0.98929368     0.04280
N485        N  0.71561954  0.03492762  0.99060660     0.66790
H486        H  0.78726375  0.04271882  0.98512549     0.15690
H487        H  0.71756795  0.12851272  0.99849745     0.15400
N488        N  0.78961818  0.13628372  0.99473551     0.74490
O489        O  0.72808801  0.01546714  0.96919215    -0.38960
O490        O  0.69123765  0.03028045  0.01809333    -0.38900
O491        O  0.81594425  0.14092555  0.96975761    -0.39610
O492        O  0.77628232  0.15560647  0.01577727    -0.39670
In493      In  0.90394758  0.58152346  0.00449706     1.36870
C494        C  0.91853006  0.57344242  0.08610338     0.77890
O495        O  0.84964005  0.60106306  0.01684140    -0.60550
O496        O  0.85099788  0.56688654  0.97626027    -0.51460
C497        C  0.92392426  0.62456968  0.96055734     0.70560
O498        O  0.92092126  0.62494632  0.00040004    -0.46320
C499        C  0.94863846  0.54192064  0.97881375     0.75260
O500        O  0.93605998  0.58996381  0.06343289    -0.58180
O501        O  0.91461526  0.53838406  0.98424648    -0.48270
O502        O  0.89151091  0.56258178  0.06808797    -0.54610
C503        C  0.83175190  0.58484558  0.99406703     0.85440
O504        O  0.91538473  0.60255968  0.94311009    -0.56500
O505        O  0.95876184  0.56597318  0.98402539    -0.59800
In506      In  0.60038286  0.58449261  0.99851783     1.36870
C507        C  0.58995846  0.57184733  0.07976194     0.77890
O508        O  0.54372338  0.56920450  0.98451877    -0.60550
O509        O  0.58896090  0.54459172  0.96767953    -0.51460
C510        C  0.58028645  0.62729350  0.95332855     0.70560
O511        O  0.57473864  0.62566846  0.99274169    -0.46320
C512        C  0.67315252  0.58569203  0.99400179     0.75260
O513        O  0.58272991  0.59513675  0.06536580    -0.58180
O514        O  0.65386239  0.56926307  0.97320310    -0.48270
O515        O  0.60411609  0.55618171  0.05302973    -0.54610
C516        C  0.55449962  0.54683844  0.96998792     0.85440
O517        O  0.59643801  0.60724274  0.93723419    -0.56500
O518        O  0.65503984  0.60237975  0.01577643    -0.59800
In519      In  0.50135954  0.50175873  0.29662255     1.36870
C520        C  0.46599033  0.97237964  0.23910212     0.77890
O521        O  0.50800501  0.53518619  0.24874749    -0.60550
O522        O  0.55422562  0.51064823  0.26261200    -0.51460
C523        C  0.47227340  0.53832688  0.34830134     0.70560
O524        O  0.45432991  0.52773602  0.31853235    -0.46320
C525        C  0.52618054  0.96366919  0.34873644     0.75260
O526        O  0.44966027  0.98893154  0.26295729    -0.58180
O527        O  0.54579483  0.98329952  0.33692279    -0.48270
O528        O  0.49988491  0.97006022  0.24657821    -0.54610
C529        C  0.54049220  0.52890719  0.23956866     0.85440
O530        O  0.50466270  0.52965473  0.35248590    -0.56500
O531        O  0.49350132  0.96406886  0.33526680    -0.59800
In532      In  0.10070042  0.91600936  0.01145571     1.36870
C533        C  0.08708114  0.92343234  0.09332873     0.77890
O534        O  0.15709003  0.89905448  0.02352833    -0.60550
O535        O  0.15207218  0.93403677  0.98450405    -0.51460
C536        C  0.08245306  0.87325980  0.96513613     0.70560
O537        O  0.08869441  0.87162200  0.00437148    -0.46320
C538        C  0.05482212  0.95552983  0.98821573     0.75260
O539        O  0.07080811  0.90585340  0.07148585    -0.58180
O540        O  0.08913377  0.95705463  0.98281406    -0.48270
O541        O  0.11254776  0.93563118  0.07430953    -0.54610
C542        C  0.17316018  0.91712898  0.00223324     0.85440
O543        O  0.08614608  0.89663441  0.94970521    -0.56500
O544        O  0.04418565  0.93323330  0.00312359    -0.59800
In545      In  0.40436388  0.92145000  0.99754004     1.36870
C546        C  0.41596202  0.93052367  0.07944342     0.77890
O547        O  0.46053756  0.93864218  0.98969639    -0.60550
O548        O  0.41588662  0.96104958  0.96429982    -0.51460
C549        C  0.42505433  0.88013665  0.94921121     0.70560
O550        O  0.43027646  0.88067467  0.98877150    -0.46320
C551        C  0.33155158  0.91806988  0.99449162     0.75260
O552        O  0.42537095  0.90873016  0.06177181    -0.58180
O553        O  0.34900673  0.93746917  0.97804804    -0.48270
O554        O  0.39840178  0.94660239  0.05580159    -0.54610
C555        C  0.44996104  0.96014250  0.97189777     0.85440
O556        O  0.40853176  0.90065687  0.93477513    -0.56500
O557        O  0.35139564  0.90041092  0.01223981    -0.59800
In558      In  0.00140991  0.50335603  0.30503935     1.36870
C559        C  0.97013407  0.53484002  0.24747259     0.77890
O560        O  0.99314691  0.53499718  0.35384022    -0.60550
O561        O  0.04776350  0.52673500  0.33413838    -0.51460
C562        C  0.97776779  0.96564998  0.35773521     0.70560
O563        O  0.95609992  0.98220004  0.33992096    -0.46320
C564        C  0.03067590  0.97287396  0.24482955     0.75260
O565        O  0.95120358  0.51915870  0.27046883    -0.58180
O566        O  0.05044831  0.98694064  0.26931955    -0.48270
O567        O  0.00383757  0.53552793  0.25653170    -0.54610
C568        C  0.02664515  0.54121481  0.35641304     0.85440
O569        O  0.01138696  0.96929873  0.34998295    -0.56500
O570        O  0.99695234  0.97298072  0.25382336    -0.59800
In571      In  0.49994314  0.75261421  0.79614987     1.36870
C572        C  0.53347893  0.78338887  0.73858715     0.77890
O573        O  0.50228949  0.72325647  0.74357365    -0.60550
O574        O  0.44939244  0.73634621  0.76378245    -0.51460
C575        C  0.52430576  0.71466537  0.84920355     0.70560
O576        O  0.54527525  0.73202569  0.83247257    -0.46320
C577        C  0.47257911  0.78956081  0.84793010     0.75260
O578        O  0.55116885  0.76730691  0.76239270    -0.58180
O579        O  0.45307492  0.77753521  0.82087749    -0.48270
O580        O  0.49966792  0.78449157  0.74647173    -0.54610
C581        C  0.46805129  0.72296218  0.73737601     0.85440
O582        O  0.49100916  0.71707080  0.83863007    -0.56500
O583        O  0.50575733  0.78222664  0.84918391    -0.59800
In584      In  0.09977470  0.67040191  0.50635793     1.36870
C585        C  0.09032250  0.67834427  0.58869842     0.77890
O586        O  0.15451897  0.65136844  0.51874560    -0.60550
O587        O  0.15220424  0.68611179  0.47924220    -0.51460
C588        C  0.08003733  0.62810020  0.46093937     0.70560
O589        O  0.07397362  0.62965077  0.50019076    -0.46320
C590        C  0.05253581  0.70865295  0.48190686     0.75260
O591        O  0.07941750  0.65724897  0.57031671    -0.58180
O592        O  0.08687961  0.71198565  0.48086067    -0.48270
O593        O  0.10818591  0.69438072  0.56560800    -0.54610
C594        C  0.17203648  0.66817863  0.49638136     0.85440
O595        O  0.09654556  0.64805111  0.44488408    -0.56500
O596        O  0.04295272  0.68520150  0.49253751    -0.59800
In597      In  0.40403871  0.66997607  0.49729815     1.36870
C598        C  0.41776022  0.68148524  0.57769852     0.77890
O599        O  0.46054819  0.68418137  0.48277829    -0.60550
O600        O  0.41601485  0.70966044  0.46514143    -0.51460
C601        C  0.42419367  0.62849835  0.44971037     0.70560
O602        O  0.43135610  0.62974545  0.48887106    -0.46320
C603        C  0.33118062  0.66751930  0.49485025     0.75260
O604        O  0.42015084  0.65757798  0.56404915    -0.58180
O605        O  0.34923810  0.68552472  0.47557607    -0.48270
O606        O  0.40606230  0.69858361  0.55127719    -0.54610
C607        C  0.45048132  0.70665114  0.46772393     0.85440
O608        O  0.40576469  0.64820663  0.43558233    -0.56500
O609        O  0.35076069  0.65071474  0.51484862    -0.59800
In610      In  0.90464310  0.83559565  0.50800707     1.36870
C611        C  0.91784556  0.82524739  0.58923596     0.77890
O612        O  0.84904111  0.85111215  0.52579787    -0.60550
O613        O  0.85233649  0.82168257  0.47748112    -0.51460
C614        C  0.92362336  0.87840114  0.46196601     0.70560
O615        O  0.92009820  0.87953479  0.50171345    -0.46320
C616        C  0.95094954  0.79756559  0.48243873     0.75260
O617        O  0.92873703  0.84660276  0.57115989    -0.58180
O618        O  0.91653926  0.79535812  0.47829585    -0.48270
O619        O  0.89797980  0.81033334  0.56646466    -0.54610
C620        C  0.83192423  0.83657089  0.49967586     0.85440
O621        O  0.91710027  0.85555416  0.44624415    -0.56500
O622        O  0.96129113  0.81957669  0.49841193    -0.59800
In623      In  0.60012333  0.83234543  0.49710429     1.36870
C624        C  0.58780928  0.82307332  0.57880485     0.77890
O625        O  0.54357158  0.81738576  0.48524356    -0.60550
O626        O  0.58780873  0.79101714  0.47091625    -0.51460
C627        C  0.58196574  0.87411619  0.44802009     0.70560
O628        O  0.58259404  0.87548282  0.48801508    -0.46320
C629        C  0.67275344  0.83627464  0.49404609     0.75260
O630        O  0.57445263  0.84325577  0.55934496    -0.58180
O631        O  0.65518987  0.81974537  0.47123603    -0.48270
O632        O  0.60865567  0.80850848  0.55667849    -0.54610
C633        C  0.55333579  0.79429659  0.47293195     0.85440
O634        O  0.59113474  0.85137927  0.43355367    -0.56500
O635        O  0.65279383  0.85068633  0.51742997    -0.59800
In636      In  0.00278208  0.75058054  0.80517858     1.36870
C637        C  0.03335845  0.72119111  0.74450713     0.77890
O638        O  0.00993397  0.71447558  0.84726073    -0.60550
O639        O  0.95662602  0.73131001  0.84124517    -0.51460
C640        C  0.02935572  0.78761995  0.85739880     0.70560
O641        O  0.04997605  0.77090631  0.83865545    -0.46320
C642        C  0.96836516  0.78131197  0.74827086     0.75260
O643        O  0.05258813  0.73554284  0.76915051    -0.58180
O644        O  0.95195108  0.76352401  0.76990025    -0.48270
O645        O  0.99961892  0.72109115  0.75303337    -0.54610
C646        C  0.97637773  0.71276677  0.85685690     0.85440
O647        O  0.99548513  0.78432737  0.85086677    -0.56500
O648        O  0.00184520  0.78407540  0.75771645    -0.59800
C649        C  0.97345990  0.81478860  0.68998894    -0.11950
C650        C  0.95134637  0.79638283  0.71237948     0.05050
C651        C  0.91621948  0.78995028  0.69595646    -0.07240
C652        C  0.90564418  0.80022937  0.65617325    -0.07990
C653        C  0.92880327  0.81731352  0.63274266    -0.02540
C654        C  0.96298450  0.82495159  0.65024201     0.04280
N655        N  0.98895705  0.84079415  0.62668352     0.66790
H656        H  0.00051046  0.81984345  0.70195346     0.15690
H657        H  0.87909995  0.79465777  0.64326531     0.15400
N658        N  0.89127856  0.77270929  0.71853291     0.74490
O659        O  0.00689378  0.85913661  0.64509254    -0.38960
O660        O  0.99913221  0.83311030  0.59044036    -0.38900
O661        O  0.88225338  0.77839159  0.75606789    -0.39610
O662        O  0.87353872  0.75477111  0.69891722    -0.39670
C663        C  0.77124537  0.85066002  0.52756120    -0.11950
C664        C  0.79126849  0.83688203  0.49639280     0.05050
C665        C  0.77195495  0.82412118  0.46311560    -0.07240
C666        C  0.73343007  0.82487218  0.46239826    -0.07990
C667        C  0.71342332  0.83814992  0.49415184    -0.02540
C668        C  0.73283350  0.85167537  0.52666066     0.04280
N669        N  0.71423801  0.86619951  0.55947485     0.66790
H670        H  0.78551624  0.86084695  0.55307560     0.15690
H671        H  0.71906955  0.81460487  0.43704677     0.15400
N672        N  0.79077594  0.81043875  0.42966776     0.74490
O673        O  0.72057254  0.86037982  0.59779649    -0.38960
O674        O  0.69794406  0.88807849  0.55063996    -0.38900
O675        O  0.80533849  0.78766789  0.43671619    -0.39610
O676        O  0.78643336  0.81831762  0.39188167    -0.39670
C677        C  0.46394216  0.75537326  0.45952084    -0.11950
C678        C  0.47686859  0.72865432  0.45849978     0.05050
C679        C  0.51523095  0.72392833  0.45653688    -0.07240
C680        C  0.53951523  0.74586250  0.45945166    -0.07990
C681        C  0.52655913  0.77244243  0.46405505    -0.02540
C682        C  0.48817472  0.77718222  0.46285403     0.04280
N683        N  0.47301671  0.80375652  0.46721194     0.66790
H684        H  0.43465874  0.75936163  0.46108748     0.15690
H685        H  0.56883359  0.74197826  0.45927480     0.15400
N686        N  0.53000611  0.69710177  0.45229873     0.74490
O687        O  0.45412710  0.81367336  0.43734451    -0.38960
O688        O  0.47092648  0.81419585  0.50356152    -0.38900
O689        O  0.51625813  0.68092790  0.42584189    -0.39610
O690        O  0.55941707  0.69062911  0.47111300    -0.39670
C691        C  0.03913792  0.75741330  0.47017271    -0.11950
C692        C  0.02587878  0.73089960  0.47433661     0.05050
C693        C  0.98745038  0.72664234  0.47460295    -0.07240
C694        C  0.96350333  0.74880291  0.47324668    -0.07990
C695        C  0.97686088  0.77536044  0.47267601    -0.02540
C696        C  0.01517078  0.77970000  0.46910832     0.04280
N697        N  0.03019303  0.80641957  0.46465725     0.66790
H698        H  0.06849792  0.76093538  0.46880898     0.15690
H699        H  0.93421817  0.74515644  0.47580943     0.15400
N700        N  0.97207173  0.70016678  0.47863079     0.74490
O701        O  0.06075727  0.81209734  0.48135076    -0.38960
O702        O  0.01547044  0.82323341  0.43958309    -0.38900
O703        O  0.97055013  0.68911699  0.51472493    -0.39610
O704        O  0.95275565  0.69085086  0.44885778    -0.39670
C705        C  0.04005981  0.68764301  0.63704357    -0.11950
C706        C  0.07807362  0.68571444  0.63148807     0.05050
C707        C  0.10194129  0.69324327  0.66495992    -0.07240
C708        C  0.08656079  0.70362795  0.70255222    -0.07990
C709        C  0.04836580  0.70678048  0.70718304    -0.02540
C710        C  0.02498997  0.69808325  0.67409793     0.04280
N711        N  0.98593064  0.70131019  0.67618827     0.66790
H712        H  0.02170429  0.68205006  0.61140711     0.15690
H713        H  0.10462860  0.71004592  0.72790509     0.15400
N714        N  0.14123377  0.68986972  0.66232035     0.74490
O715        O  0.96984948  0.71693055  0.65035687    -0.38960
O716        O  0.96716074  0.68522934  0.69845327    -0.38900
O717        O  0.15803097  0.69289623  0.62769805    -0.39610
O718        O  0.15970699  0.68516792  0.69547601    -0.39670
C719        C  0.27126244  0.68680866  0.47183807    -0.11950
C720        C  0.29044484  0.66655774  0.49412085     0.05050
C721        C  0.27022591  0.64586765  0.51451405    -0.07240
C722        C  0.23179082  0.64636135  0.51305677    -0.07990
C723        C  0.21258849  0.66712108  0.49201649    -0.02540
C724        C  0.23277733  0.68718246  0.47006480     0.04280
N725        N  0.21498250  0.70797246  0.44565456     0.66790
H726        H  0.28629140  0.70248256  0.45520426     0.15690
H727        H  0.21684374  0.63068188  0.52979925     0.15400
N728        N  0.28791834  0.62446040  0.53756962     0.74490
O729        O  0.22500776  0.73224551  0.44958067    -0.38960
O730        O  0.19486263  0.70160239  0.41465405    -0.38900
O731        O  0.30400050  0.62959111  0.57207363    -0.39610
O732        O  0.28067825  0.60021011  0.52857810    -0.39670
C733        C  0.58581491  0.79127891  0.68919201    -0.11950
C734        C  0.55001773  0.79800923  0.70208313     0.05050
C735        C  0.52884337  0.81565551  0.67620213    -0.07240
C736        C  0.54272521  0.82427803  0.63708243    -0.07990
C737        C  0.57736618  0.81596933  0.62280778    -0.02540
C738        C  0.59960962  0.79986488  0.64982973     0.04280
N739        N  0.63610458  0.79198085  0.63811872     0.66790
H740        H  0.60257946  0.77800356  0.70872432     0.15690
H741        H  0.52563848  0.83699457  0.61702949     0.15400
N742        N  0.49283935  0.82453249  0.68841982     0.74490
O743        O  0.66263994  0.79802005  0.66205622    -0.38960
O744        O  0.64070311  0.77402068  0.61034097    -0.38900
O745        O  0.48828805  0.83642854  0.72333517    -0.39610
O746        O  0.46680543  0.82410611  0.66192335    -0.39670
C747        C  0.47062614  0.71892776  0.66087842    -0.11950
C748        C  0.45281092  0.71122565  0.69832130     0.05050
C749        C  0.42340466  0.69247265  0.69653063    -0.07240
C750        C  0.41321386  0.68180027  0.65675087    -0.07990
C751        C  0.43113575  0.68995880  0.61950368    -0.02540
C752        C  0.46027485  0.70855496  0.62172876     0.04280
N753        N  0.48043763  0.71644443  0.58460744     0.66790
H754        H  0.49333135  0.73308305  0.66214555     0.15690
H755        H  0.39045708  0.66776546  0.65460753     0.15400
N756        N  0.40437222  0.68349991  0.73399027     0.74490
O757        O  0.49061258  0.74065145  0.57988123    -0.38960
O758        O  0.49299271  0.69859921  0.56009136    -0.39020
O759        O  0.39702526  0.69977974  0.76345327    -0.39610
O760        O  0.39082672  0.66004183  0.73543421    -0.39670
C761        C  0.94210130  0.94932012  0.41953782    -0.11950
C762        C  0.96473261  0.94338625  0.38485159     0.05050
C763        C  0.97256396  0.91616339  0.37495398    -0.07240
C764        C  0.95773033  0.89557164  0.40013872    -0.07990
C765        C  0.93588658  0.90138335  0.43554891    -0.02540
C766        C  0.92751921  0.92863842  0.44517335     0.04280
N767        N  0.90317565  0.93565544  0.47928791     0.66790
H768        H  0.93534044  0.97021698  0.42629511     0.15690
H769        H  0.96418199  0.87473751  0.39253918     0.15400
N770        N  0.99408951  0.90891703  0.33858279     0.74490
O771        O  0.90782576  0.95741349  0.49933919    -0.38960
O772        O  0.87415442  0.92228884  0.48545432    -0.38900
O773        O  0.02624600  0.91797058  0.33426428    -0.39610
O774        O  0.98356151  0.88994863  0.31488245    -0.39670
C775        C  0.02973290  0.60215236  0.42956479    -0.11950
C776        C  0.06757368  0.60513088  0.43552887     0.05050
C777        C  0.09230673  0.58748623  0.41494381    -0.07240
C778        C  0.07808496  0.56686420  0.38919005    -0.07990
C779        C  0.04004494  0.56380638  0.38301554    -0.02540
C780        C  0.01566826  0.58231166  0.40259585     0.04280
N781        N  0.97697721  0.58244576  0.39363253     0.66790
H782        H  0.01100476  0.61637312  0.44430645     0.15690
H783        H  0.09692065  0.55287224  0.37420756     0.15400
N784        N  0.13153709  0.58982483  0.42024535     0.74490
O785        O  0.95427238  0.58558146  0.42341622    -0.38960
O786        O  0.96601268  0.58518362  0.35585697    -0.38900
O787        O  0.14507647  0.59864038  0.45434299    -0.39610
O788        O  0.15298148  0.58101075  0.39205849    -0.39670
C789        C  0.45167454  0.83395974  0.94251915    -0.11950
C790        C  0.43712643  0.85710594  0.92245986     0.05050
C791        C  0.43360857  0.85728339  0.87771949    -0.07240
C792        C  0.44325454  0.83416020  0.85470833    -0.07990
C793        C  0.45821634  0.81135668  0.87480984    -0.02540
C794        C  0.46250603  0.81109625  0.91932332     0.04280
N795        N  0.47684114  0.78778113  0.94150847     0.66790
H796        H  0.45423246  0.83350973  0.97674162     0.15690
H797        H  0.44110824  0.83458367  0.82039817     0.15400
N798        N  0.42233634  0.88103225  0.85480794     0.74490
O799        O  0.49198537  0.79045988  0.97727963    -0.38960
O800        O  0.47133398  0.76423657  0.92761823    -0.38900
O801        O  0.44052376  0.90258936  0.85856526    -0.39610
O802        O  0.39971625  0.87899136  0.82461530    -0.39670
C803        C  0.08251677  0.95102026  0.20557902    -0.11950
C804        C  0.04516505  0.95830063  0.20737607     0.05050
C805        C  0.02200728  0.95191804  0.17273495    -0.07240
C806        C  0.03639062  0.93804004  0.13806138    -0.07990
C807        C  0.07380164  0.93174952  0.13540784    -0.02540
C808        C  0.09735375  0.93783903  0.16984273     0.04280
N809        N  0.13571533  0.93038488  0.16952707     0.66790
H810        H  0.10017679  0.95562560  0.23227669     0.15690
H811        H  0.01865118  0.93426322  0.11105558     0.15400
N812        N  0.98478603  0.96152542  0.17014389     0.74490
O813        O  0.15789002  0.94120932  0.19513551    -0.38960
O814        O  0.14697200  0.91108008  0.14691061    -0.38900
O815        O  0.97822330  0.98648290  0.17365039    -0.39610
O816        O  0.96002833  0.94633882  0.15555349    -0.39670
C817        C  0.03868374  0.85495404  0.91345118    -0.11950
C818        C  0.06947980  0.85038039  0.93926991     0.05050
C819        C  0.08783676  0.82512926  0.93738033    -0.07240
C820        C  0.07474802  0.80522605  0.90945767    -0.07990
C821        C  0.04346020  0.80970375  0.88427765    -0.02540
C822        C  0.02548093  0.83507427  0.88592317     0.04280
N823        N  0.99500281  0.84152632  0.85855840     0.66790
H824        H  0.02510998  0.87450046  0.91416513     0.15690
H825        H  0.08860867  0.78582420  0.90813777     0.15400
N826        N  0.12041601  0.81962464  0.96182407     0.74490
O827        O  0.96910572  0.85622682  0.87188295    -0.38960
O828        O  0.99655745  0.83612344  0.81953113    -0.38900
O829        O  0.12107667  0.82425128  0.00109805    -0.39610
O830        O  0.14634752  0.80618012  0.94567253    -0.39670
C831        C  0.27246782  0.93949312  0.01210931    -0.11950
C832        C  0.29104560  0.91716104  0.99521325     0.05050
C833        C  0.27059114  0.89504697  0.97952947    -0.07240
C834        C  0.23201480  0.89598313  0.98140555    -0.07990
C835        C  0.21349480  0.91829102  0.99856050    -0.02540
C836        C  0.23397912  0.94033428  0.01435729     0.04280
N837        N  0.21666154  0.96286305  0.03508804     0.66790
H838        H  0.28819468  0.95635907  0.02428569     0.15690
H839        H  0.21624570  0.87900240  0.96966790     0.15400
N840        N  0.28804925  0.87213245  0.96009203     0.74490
O841        O  0.23172931  0.97344020  0.06702625    -0.38960
O842        O  0.18893842  0.97430985  0.01890659    -0.38900
O843        O  0.31426679  0.86007462  0.97840424    -0.39610
O844        O  0.27386922  0.86154155  0.92763241    -0.39670
C845        C  0.54389280  0.91583487  0.35603108    -0.11950
C846        C  0.54072675  0.94132469  0.37479168     0.05050
C847        C  0.55345713  0.94514844  0.41663192    -0.07240
C848        C  0.56767882  0.92294362  0.43924904    -0.07990
C849        C  0.57040852  0.89720848  0.42082835    -0.02540
C850        C  0.55956327  0.89394694  0.37799969     0.04280
N851        N  0.56455369  0.86888216  0.35605004     0.66790
H852        H  0.53528186  0.91317656  0.32337089     0.15690
H853        H  0.57611093  0.92573334  0.47188971     0.15400
N854        N  0.55121710  0.97102181  0.43707003     0.74490
O855        O  0.53845861  0.85925202  0.33451712    -0.38960
O856        O  0.59663873  0.85985767  0.35033654    -0.38900
O857        O  0.52428649  0.98652621  0.43019445    -0.39610
O858        O  0.57437714  0.97740938  0.46510512    -0.39670
C859        C  0.44900371  0.58194603  0.44286697    -0.11950
C860        C  0.43629079  0.60563214  0.42288057     0.05050
C861        C  0.43433417  0.60649315  0.37801345    -0.07240
C862        C  0.44424163  0.58356232  0.35464710    -0.07990
C863        C  0.45732880  0.56015758  0.37476846    -0.02540
C864        C  0.45927521  0.55915895  0.41937249     0.04280
N865        N  0.46948397  0.53474212  0.44121219     0.66790
H866        H  0.44993803  0.58083295  0.47717763     0.15690
H867        H  0.44360859  0.58451614  0.32029436     0.15400
N868        N  0.42431279  0.63069971  0.35548969     0.74490
O869        O  0.48649248  0.53585669  0.47607753    -0.38960
O870        O  0.45663030  0.51237887  0.42914700    -0.38900
O871        O  0.44195859  0.65225252  0.36181382    -0.39610
O872        O  0.40302701  0.62934993  0.32393392    -0.39670
C873        C  0.40459217  0.95694193  0.14481879    -0.11950
C874        C  0.42602527  0.93769483  0.12347059     0.05050
C875        C  0.45796401  0.92739145  0.14343430    -0.07240
C876        C  0.46843550  0.93745088  0.18310745    -0.07990
C877        C  0.44829842  0.95797706  0.20327913    -0.02540
C878        C  0.41499158  0.96691994  0.18464210     0.04280
N879        N  0.39212437  0.98677069  0.20462851     0.66790
H880        H  0.37966896  0.96459589  0.13012949     0.15690
H881        H  0.49403718  0.93038207  0.19692236     0.15400
N882        N  0.48190583  0.90860117  0.12259115     0.74490
O883        O  0.37922211  0.50619655  0.18313066    -0.38960
O884        O  0.37935081  0.98220387  0.24112078    -0.38900
O885        O  0.49598115  0.91476106  0.08731735    -0.39610
O886        O  0.49453205  0.88856178  0.14287311    -0.39670
C887        C  0.51345774  0.97670833  0.96098775    -0.11950
C888        C  0.47575092  0.98263943  0.96322850     0.05050
C889        C  0.46425824  0.50995135  0.96100488    -0.07240
C890        C  0.49072770  0.53049966  0.95911467    -0.07990
C891        C  0.52853077  0.52460556  0.96011566    -0.02540
C892        C  0.53990168  0.99723585  0.95895097     0.04280
N893        N  0.57801388  0.98979623  0.95782783     0.66790
H894        H  0.52259782  0.95583382  0.96174902     0.15690
H895        H  0.48156345  0.55135864  0.95993186     0.15400
N896        N  0.42629121  0.51747540  0.96443163     0.74490
O897        O  0.59007474  0.97171790  0.98261837    -0.38960
O898        O  0.59785797  0.49760561  0.92740200    -0.38900
O899        O  0.40834057  0.51097031  0.99710199    -0.39610
O900        O  0.41309713  0.53502342  0.93948126    -0.39670
C901        C  0.58008120  0.53413575  0.12976436    -0.11950
C902        C  0.58082856  0.56224267  0.12312834     0.05050
C903        C  0.57152376  0.57950395  0.15714857    -0.07240
C904        C  0.56066283  0.56819916  0.19615069    -0.07990
C905        C  0.55905954  0.54007871  0.20199674    -0.02540
C906        C  0.56923117  0.52286617  0.16843458     0.04280
N907        N  0.56559405  0.99399913  0.17159050     0.66790
H908        H  0.58689249  0.52053951  0.10410415     0.15690
H909        H  0.55216823  0.58145993  0.22160480     0.15400
N910        N  0.57262521  0.60832996  0.15290679     0.74490
O911        O  0.55103885  0.98098766  0.14162319    -0.38960
O912        O  0.58185858  0.98113544  0.20074397    -0.38900
O913        O  0.54924166  0.62024219  0.12982597    -0.39610
O914        O  0.59112618  0.62197807  0.17901452    -0.39670
C915        C  0.52937217  0.65195411  0.91975215    -0.11950
C916        C  0.56714636  0.65018621  0.92757671     0.05050
C917        C  0.59092836  0.67020237  0.91113248    -0.07240
C918        C  0.57587617  0.69140317  0.88672186    -0.07990
C919        C  0.53797882  0.69299317  0.87806836    -0.02540
C920        C  0.51446161  0.67306989  0.89547516     0.04280
N921        N  0.47546668  0.67383765  0.88910769     0.66790
H922        H  0.51116479  0.63672376  0.93283861     0.15690
H923        H  0.59415293  0.70653100  0.87358767     0.15400
N924        N  0.62993016  0.66979618  0.91934162     0.74490
O925        O  0.45902389  0.65303242  0.87603987    -0.38960
O926        O  0.45689828  0.69309472  0.90422704    -0.38900
O927        O  0.64722823  0.64775774  0.92300802    -0.39610
O928        O  0.64782059  0.69162840  0.91987643    -0.39670
C929        C  0.01318863  0.52581599  0.97533788    -0.11950
C930        C  0.97557661  0.51974000  0.97145623     0.05050
C931        C  0.96494927  0.99236326  0.96799961    -0.07240
C932        C  0.99159647  0.97192588  0.97253721    -0.07990
C933        C  0.02881690  0.97804027  0.97949515    -0.02540
C934        C  0.03976386  0.50543544  0.98018418     0.04280
N935        N  0.07688707  0.51312789  0.98964961     0.66790
H936        H  0.02185177  0.54667962  0.97827408     0.15690
H937        H  0.98307805  0.95097858  0.97083475     0.15400
N938        N  0.92744709  0.98490353  0.96023343     0.74490
O939        O  0.09169498  0.53215291  0.96913336    -0.38960
O940        O  0.09198615  0.00485162  0.02337473    -0.38900
O941        O  0.90968253  0.99610370  0.93053069    -0.39610
O942        O  0.91391487  0.96449260  0.97853684    -0.39670
C943        C  0.98020837  0.55034109  0.17493721    -0.11950
C944        C  0.95593359  0.54874608  0.20930072     0.05050
C945        C  0.91883784  0.55679901  0.20380478    -0.07240
C946        C  0.90682267  0.56492040  0.16310270    -0.07990
C947        C  0.93118965  0.56546159  0.12865166    -0.02540
C948        C  0.96809790  0.55770173  0.13462889     0.04280
N949        N  0.99253257  0.55421626  0.09937273     0.66790
H950        H  0.00834401  0.54338611  0.17850108     0.15690
H951        H  0.87853398  0.57119644  0.15828911     0.15400
N952        N  0.89367523  0.55770342  0.23893866     0.74490
O953        O  0.02607315  0.56021959  0.10300496    -0.38960
O954        O  0.98242849  0.54020721  0.06816448    -0.38900
O955        O  0.90500616  0.56370090  0.27554761    -0.39610
O956        O  0.85949240  0.55603416  0.23258460    -0.39670
C957        C  0.98700263  0.67152119  0.90037238    -0.11950
C958        C  0.96192605  0.69051560  0.88380030     0.05050
C959        C  0.92410535  0.68762603  0.89336333    -0.07240
C960        C  0.91265545  0.66649395  0.91998145    -0.07990
C961        C  0.93782431  0.64768591  0.93623462    -0.02540
C962        C  0.97551150  0.65004681  0.92630246     0.04280
N963        N  0.00233193  0.63081224  0.94161051     0.66790
H964        H  0.01602091  0.67343669  0.89322655     0.15690
H965        H  0.88362355  0.66414684  0.92682431     0.15400
N966        N  0.89677108  0.70511184  0.87520040     0.74490
O967        O  0.03108726  0.62622329  0.92046108    -0.38960
O968        O  0.99909012  0.62004519  0.97775075    -0.38900
O969        O  0.89208822  0.70546275  0.83554645    -0.39610
O970        O  0.87262698  0.71557510  0.89869964    -0.39670
C971        C  0.77208553  0.56156406  0.98694259    -0.11950
C972        C  0.79128597  0.58600295  0.99028335     0.05050
C973        C  0.77139563  0.61051079  0.99417977    -0.07240
C974        C  0.73285052  0.60973057  0.99607072    -0.07990
C975        C  0.71372391  0.58522129  0.99333009    -0.02540
C976        C  0.73362650  0.56076601  0.98929369     0.04280
N977        N  0.71561955  0.53492761  0.99060661     0.66790
H978        H  0.78726376  0.54271882  0.98512549     0.15690
H979        H  0.71756795  0.62851272  0.99849746     0.15400
N980        N  0.78961817  0.63628372  0.99473552     0.74490
O981        O  0.72808802  0.51546714  0.96919216    -0.38960
O982        O  0.69123766  0.53028044  0.01809334    -0.38900
O983        O  0.81594424  0.64092556  0.96975761    -0.39610
O984        O  0.77628232  0.65560647  0.01577727    -0.39670
loop_ 
_geom_bond_atom_site_label_1 
_geom_bond_atom_site_label_2 
_geom_bond_distance 
_geom_bond_site_symmetry_2 
_ccdc_geom_bond_type 
In1           O3   2.233       .  S
In1           O4   2.245   1_554  S
In1          O12   2.235   1_554  S
In1           O6   2.240       .  S
In1           O8   2.236       .  S
In1           O9   2.263   1_554  S
In1          O10   2.258       .  S
In1          O13   2.234   1_554  S
C2            O8   1.259       .  A
C2           O10   1.258       .  A
C2          C455   1.470       .  S
O3           C11   1.261   1_554  A
O4           C11   1.264       .  A
C5           O12   1.262       .  A
C5            O6   1.262   1_556  A
C5          C469   1.466       .  S
C7            O9   1.263       .  A
C7           O13   1.258       .  A
C7          C438   1.489       .  S
C11         C480   1.478       .  S
In14         O16   2.242       .  S
In14         O17   2.244       .  S
In14         O25   2.237       .  S
In14         O19   2.244       .  S
In14         O21   2.270   1_556  S
In14         O22   2.235       .  S
In14         O23   2.217   1_556  S
In14         O26   2.247   1_556  S
C15          O21   1.263       .  A
C15          O23   1.258       .  A
C15         C410   1.485       .  S
O16          C24   1.261       .  A
O17          C24   1.261       .  A
C18          O25   1.261       .  A
C18          O19   1.263       .  A
C18         C424   1.469       .  S
C20          O22   1.261       .  A
C20          O26   1.262   1_556  A
C20         C483   1.477       .  S
C24         C399   1.486       .  S
In27         O29   2.248       .  S
In27         O30   2.248       .  S
In27         O38   2.247       .  S
In27         O32   2.249       .  S
In27        O526   2.253   1_545  S
In27        O527   2.245   1_545  S
In27        O528   2.231   1_545  S
In27        O531   2.242   1_545  S
C28          O34   1.263       .  A
C28          O36   1.260       .  A
C28         C385   1.486       .  S
O29          C37   1.256       .  A
O30          C37   1.259       .  A
C31          O38   1.260       .  A
C31          O32   1.260       .  A
C31         C371   1.472       .  S
C33          O35   1.262       .  A
C33          O39   1.262       .  A
C33         C354   1.471       .  S
O34        In519   2.253       .  S
O35        In519   2.245       .  S
O36        In519   2.231       .  S
C37         C413   1.472       .  S
O39        In519   2.242       .  S
In40         O42   2.246       .  S
In40         O43   2.241   1_554  S
In40         O51   2.239   1_554  S
In40         O45   2.252       .  S
In40         O47   2.242       .  S
In40         O48   2.257   1_554  S
In40         O49   2.254       .  S
In40         O52   2.239       .  S
C41          O47   1.261       .  A
C41          O49   1.259       .  A
C41         C315   1.474       .  S
O42          C50   1.262       .  A
O43          C50   1.262   1_556  A
C44          O51   1.260       .  A
C44          O45   1.260   1_556  A
C44         C326   1.477       .  S
C46          O48   1.263       .  A
C46          O52   1.259   1_556  A
C46         C441   1.484       .  S
C50         C343   1.474   1_554  S
In53         O55   2.230       .  S
In53         O56   2.258       .  S
In53         O64   2.241       .  S
In53         O58   2.243       .  S
In53         O60   2.251   1_556  S
In53         O61   2.246       .  S
In53         O62   2.235   1_556  S
In53         O65   2.242   1_556  S
C54          O60   1.263       .  A
C54          O62   1.260       .  A
C54         C382   1.481       .  S
O55          C63   1.259       .  A
O56          C63   1.263       .  A
C57          O64   1.261       .  A
C57          O58   1.263       .  A
C57         C298   1.487       .  S
C59          O61   1.262       .  A
C59          O65   1.260   1_556  A
C59         C340   1.475       .  S
C63         C396   1.483       .  S
In66         O68   2.221   1_455  S
In66         O69   2.245       .  S
In66         O73   2.262   1_455  S
In66         O75   2.205       .  S
In66        O569   2.226   1_545  S
In66        O563   2.243   1_445  S
In66        O566   2.263   1_545  S
In66        O570   2.218   1_445  S
C67          O73   1.266       .  A
C67          O75   1.260   1_655  A
C67         C452   1.476       .  S
O68          C76   1.261   1_655  A
O69          C76   1.265       .  A
C70          O77   1.262   1_655  A
C70          O71   1.264       .  A
C70         C270   1.472       .  S
O71        In558   2.243   1_655  S
C72          O74   1.267       .  A
C72          O78   1.260   1_455  A
C72         C312   1.484       .  S
O74        In558   2.263       .  S
C76         C287   1.484       .  S
O77        In558   2.226       .  S
O78        In558   2.218   1_655  S
In79         O81   2.212       .  S
In79         O82   2.255       .  S
In79         O90   2.231       .  S
In79         O84   2.246       .  S
In79         O86   2.269       .  S
In79         O87   2.245       .  S
In79         O88   2.218       .  S
In79         O91   2.239       .  S
C80          O86   1.265       .  A
C80          O88   1.257       .  A
C80         C242   1.486       .  S
O81          C89   1.261       .  A
O82          C89   1.264       .  A
C83          O90   1.261       .  A
C83          O84   1.265       .  A
C83         C427   1.487       .  S
C85          O87   1.261       .  A
C85          O91   1.260       .  A
C85         C301   1.470       .  S
C89         C256   1.473       .  S
In92         O94   2.234       .  S
In92         O95   2.233       .  S
In92        O103   2.240       .  S
In92         O97   2.235       .  S
In92         O99   2.245       .  S
In92        O100   2.253       .  S
In92        O101   2.240       .  S
In92        O104   2.233       .  S
C93          O99   1.261       .  A
C93         O101   1.258       .  A
C93         C214   1.470       .  S
O94         C102   1.263       .  A
O95         C102   1.261       .  A
C96         O103   1.262       .  A
C96          O97   1.261       .  A
C96         C284   1.466       .  S
C98         O100   1.262       .  A
C98         O104   1.257       .  A
C98         C200   1.483       .  S
C102        C231   1.483       .  S
In105       O107   2.223       .  S
In105       O108   2.250       .  S
In105       O116   2.231       .  S
In105       O110   2.239       .  S
In105       O112   2.267       .  S
In105       O113   2.241       .  S
In105       O114   2.221       .  S
In105       O117   2.233       .  S
C106        O112   1.263       .  A
C106        O114   1.258       .  A
C106        C259   1.469       .  S
O107        C115   1.260       .  A
O108        C115   1.265       .  A
C109        O116   1.261       .  A
C109        O110   1.264       .  A
C109        C368   1.482       .  S
C111        O113   1.263       .  A
C111        O117   1.260       .  A
C111        C228   1.484       .  S
C115        C186   1.482       .  S
In118       O120   2.236       .  S
In118       O121   2.243       .  S
In118       O129   2.229       .  S
In118       O123   2.255       .  S
In118       O125   2.246       .  S
In118       O126   2.245       .  S
In118       O127   2.237       .  S
In118       O130   2.228       .  S
C119        O125   1.263       .  A
C119        O127   1.261       .  A
C119        C161   1.480       .  S
O120        C128   1.261       .  A
O121        C128   1.260       .  A
C122        O129   1.259       .  A
C122        O123   1.262       .  A
C122        C273   1.477       .  S
C124        O126   1.264       .  A
C124        O130   1.260       .  A
C124        C203   1.480       .  S
C128        C172   1.483       .  S
In131       O133   2.221       .  S
In131       O134   2.254       .  S
In131       O142   2.234       .  S
In131       O136   2.242       .  S
In131       O138   2.244       .  S
In131       O139   2.253       .  S
In131       O140   2.235       .  S
In131       O143   2.218       .  S
C132        O138   1.265       .  A
C132        O140   1.259       .  A
C132        C245   1.481       .  S
O133        C141   1.259       .  A
O134        C141   1.266       .  A
C135        O142   1.260       .  A
C135        O136   1.264       .  A
C135        C357   1.485       .  S
C137        O139   1.266       .  A
C137        O143   1.259       .  A
C137        C175   1.483       .  S
C141        C189   1.485       .  S
In144       O146   2.235       .  S
In144       O147   2.243   1_455  S
In144       O155   2.226   1_455  S
In144       O149   2.256       .  S
In144       O151   2.267       .  S
In144       O152   2.247   1_455  S
In144       O153   2.207   1_455  S
In144       O156   2.228       .  S
C145        O151   1.267       .  A
C145        O153   1.258   1_455  A
C145        C217   1.484       .  S
O146        C154   1.262   1_455  A
O147        C154   1.261       .  A
C148        O155   1.261   1_455  A
C148        O149   1.265       .  A
C148        C329   1.479       .  S
C150        O152   1.263       .  A
C150        O156   1.262   1_655  A
C150        C158   1.486       .  S
C154        C466   1.486       .  S
C157        C158   1.406       .  A
C157        C162   1.401       .  A
C157        H164   1.084   1_655  S
C158        C159   1.416       .  A
C159        C160   1.405       .  A
C159        N166   1.435       .  S
C160        C161   1.404       .  A
C160        H165   1.085       .  S
C161        C162   1.413       .  A
C162        N163   1.436       .  S
N163        O167   1.262   1_655  A
N163        O168   1.263       .  A
N166        O169   1.262       .  A
N166        O170   1.263       .  A
C171        C172   1.403       .  A
C171        C176   1.399       .  A
C171        H178   1.084       .  S
C172        C173   1.415       .  A
C173        C174   1.403       .  A
C173        N180   1.431       .  S
C174        C175   1.404       .  A
C174        H179   1.084       .  S
C175        C176   1.416       .  A
C176        N177   1.433       .  S
N177        O181   1.262       .  A
N177        O182   1.262       .  A
N180        O183   1.262       .  A
N180        O184   1.262       .  A
C185        C186   1.402       .  A
C185        C190   1.400       .  A
C185        H192   1.085       .  S
C186        C187   1.416       .  A
C187        C188   1.405       .  A
C187        N194   1.437       .  S
C188        C189   1.404       .  A
C188        H193   1.084       .  S
C189        C190   1.416       .  A
C190        N191   1.431       .  S
N191        O195   1.262       .  A
N191        O196   1.262       .  A
N194        O197   1.263       .  A
N194        O198   1.263       .  A
C199        C200   1.404       .  A
C199        C204   1.404       .  A
C199        H206   1.084       .  S
C200        C201   1.415   1_455  A
C201        C202   1.399       .  A
C201        N208   1.431       .  S
C202        C203   1.402       .  A
C202        H207   1.085       .  S
C203        C204   1.416   1_655  A
C204        N205   1.438       .  S
N205        O209   1.263       .  A
N205        O210   1.263       .  A
N208        O211   1.262       .  A
N208        O212   1.262       .  A
C213        C214   1.398       .  A
C213        C218   1.393       .  A
C213        H220   1.085       .  S
C214        C215   1.418       .  A
C215        C216   1.411       .  A
C215        N222   1.442       .  S
C216        C217   1.406       .  A
C216        H221   1.084       .  S
C217        C218   1.415       .  A
C218        N219   1.432   1_455  S
N219        O223   1.262       .  A
N219        O224   1.262       .  A
N222        O225   1.261       .  A
N222        O226   1.263       .  A
C227        C228   1.405       .  A
C227        C232   1.402       .  A
C227        H234   1.084       .  S
C228        C229   1.415       .  A
C229        C230   1.400       .  A
C229        N236   1.433       .  S
C230        C231   1.404       .  A
C230        H235   1.085       .  S
C231        C232   1.416       .  A
C232        N233   1.434       .  S
N233        O237   1.262       .  A
N233        O238   1.262       .  A
N236        O239   1.262       .  A
N236        O240   1.262       .  A
C241        C242   1.405       .  A
C241        C246   1.405       .  A
C241        H248   1.084       .  S
C242        C243   1.418       .  A
C243        C244   1.400       .  A
C243        N250   1.435       .  S
C244        C245   1.401       .  A
C244        H249   1.084       .  S
C245        C246   1.416       .  A
C246        N247   1.433       .  S
N247        O251   1.262       .  A
N247        O252   1.262       .  A
N250        O253   1.262       .  A
N250        O254   1.263       .  A
C255        C256   1.401       .  A
C255        C260   1.392       .  A
C255        H262   1.085       .  S
C256        C257   1.420       .  A
C257        C258   1.413       .  A
C257        N264   1.440       .  S
C258        C259   1.403       .  A
C258        H263   1.084       .  S
C259        C260   1.408       .  A
C260        N261   1.437       .  S
N261        O265   1.263       .  A
N261        O266   1.262       .  A
N264        O267   1.261       .  A
N264        O268   1.263       .  A
C269        C270   1.403       .  A
C269        C274   1.407       .  A
C269        H276   1.084       .  S
C270        C271   1.412       .  A
C271        C272   1.399       .  A
C271        N278   1.437       .  S
C272        C273   1.403       .  A
C272        H277   1.084       .  S
C273        C274   1.416       .  A
C274        N275   1.439       .  S
N275        O279   1.263       .  A
N275        O280   1.263       .  A
N278        O281   1.262   1_655  A
N278        O282   1.263       .  A
C283        C284   1.398       .  A
C283        C288   1.399       .  A
C283        H290   1.085       .  S
C284        C285   1.413       .  A
C285        C286   1.406       .  A
C285        N292   1.442       .  S
C286        C287   1.406       .  A
C286        H291   1.084       .  S
C287        C288   1.418       .  A
C288        N289   1.436   1_455  S
N289        O293   1.262       .  A
N289        O294   1.263       .  A
N292        O295   1.263       .  A
N292        O296   1.263       .  A
C297        C298   1.407       .  A
C297        C302   1.406       .  A
C297        H304   1.084       .  S
C298        C299   1.417       .  A
C299        C300   1.402       .  A
C299        N306   1.435       .  S
C300        C301   1.400       .  A
C300        H305   1.085       .  S
C301        C302   1.413       .  A
C302        N303   1.442       .  S
N303        O307   1.263       .  A
N303        O308   1.263       .  A
N306        O309   1.263       .  A
N306        O310   1.262       .  A
C311        C312   1.407       .  A
C311        C316   1.413       .  A
C311        H318   1.084       .  S
C312        C313   1.416       .  A
C313        C314   1.396       .  A
C313        N320   1.436   1_455  S
C314        C315   1.399       .  A
C314        H319   1.085       .  S
C315        C316   1.417       .  A
C316        N317   1.443       .  S
N317        O321   1.263       .  A
N317        O322   1.263       .  A
N320        O323   1.262       .  A
N320        O324   1.262       .  A
C325        C326   1.402       .  A
C325        C330   1.401       .  A
C325        H332   1.085       .  S
C326        C327   1.416       .  A
C327        C328   1.408       .  A
C327        N334   1.438       .  S
C328        C329   1.404       .  A
C328        H333   1.084       .  S
C329        C330   1.415       .  A
C330        N331   1.439   1_455  S
N331        O335   1.263       .  A
N331        O336   1.263       .  A
N334        O337   1.261   1_556  A
N334        O338   1.263       .  A
C339        C340   1.402   1_554  A
C339        C344   1.403       .  A
C339        H346   1.085       .  S
C340        C341   1.416       .  A
C341        C342   1.406       .  A
C341        N348   1.438       .  S
C342        C343   1.403       .  A
C342        H347   1.085       .  S
C343        C344   1.415   1_556  A
C344        N345   1.439       .  S
N345        O349   1.263       .  A
N345        O350   1.261       .  A
N348        O351   1.261       .  A
N348        O352   1.263       .  A
C353        C354   1.400       .  A
C353        C358   1.402       .  A
C353        H360   1.085       .  S
C354        C355   1.412       .  A
C355        C356   1.404       .  A
C355        N362   1.438       .  S
C356        C357   1.405       .  A
C356        H361   1.084       .  S
C357        C358   1.417       .  A
C358        N359   1.434       .  S
N359        O363   1.262       .  A
N359        O364   1.263       .  A
N362        O365   1.261       .  A
N362        O366   1.263       .  A
C367        C368   1.405       .  A
C367        C372   1.402       .  A
C367        H374   1.084       .  S
C368        C369   1.418       .  A
C369        C370   1.402       .  A
C369        N376   1.435       .  S
C370        C371   1.400       .  A
C370        H375   1.085       .  S
C371        C372   1.410       .  A
C372        N373   1.435       .  S
N373        O377   1.263       .  A
N373        O378   1.262       .  A
N376        O379   1.263       .  A
N376        O380   1.262       .  A
C381        C382   1.404       .  A
C381        C386   1.404       .  A
C381        H388   1.084       .  S
C382        C383   1.414       .  A
C383        C384   1.402       .  A
C383        N390   1.435       .  S
C384        C385   1.406       .  A
C384        H389   1.084       .  S
C385        C386   1.415       .  A
C386        N387   1.434       .  S
N387        O392   1.262       .  A
N387        O883   1.263       .  A
N390        O393   1.263       .  A
N390        O394   1.262       .  A
O391        N879   1.263   1_545  A
C395        C396   1.404       .  A
C395        C400   1.402       .  A
C395        H402   1.084       .  S
C396        C889   1.414       .  A
C397        C398   1.404       .  A
C397        C888   1.414   1_545  A
C397        N404   1.434       .  S
C398        C399   1.406       .  A
C398        H403   1.084       .  S
C399        C892   1.415   1_545  A
C400        C891   1.415       .  A
C400        N401   1.435       .  S
N401        O405   1.263       .  A
N401        O898   1.262       .  A
N404        O407   1.262       .  A
N404        O408   1.262       .  A
O406        N893   1.262       .  A
C409        C410   1.405       .  A
C409        C414   1.397       .  A
C409        H416   1.084       .  S
C410        C411   1.416       .  A
C411        C412   1.407       .  A
C411        N418   1.432       .  S
C412        C413   1.404       .  A
C412        H417   1.084       .  S
C413        C414   1.411       .  A
C414        N907   1.437   1_545  S
N415        C906   1.437       .  S
N415        O419   1.263       .  A
N415        O420   1.262       .  A
N418        O421   1.262       .  A
N418        O422   1.262       .  A
C423        C424   1.399       .  A
C423        C428   1.400       .  A
C423        H430   1.085       .  S
C424        C425   1.414       .  A
C425        C426   1.407       .  A
C425        N432   1.442       .  S
C426        C427   1.407       .  A
C426        H431   1.084       .  S
C427        C428   1.417       .  A
C428        N429   1.433       .  S
N429        O433   1.262       .  A
N429        O434   1.262       .  A
N432        O435   1.262       .  A
N432        O436   1.263       .  A
C437        C438   1.408   1_455  A
C437        C442   1.403       .  A
C437        H444   1.084       .  S
C438        C931   1.414   1_545  A
C439        C440   1.406       .  A
C439        C930   1.414       .  A
C439        N446   1.436       .  S
C440        C441   1.406   1_655  A
C440        H445   1.084       .  S
C441        C934   1.414       .  A
C442        C933   1.414   1_545  A
C442        N443   1.436       .  S
N443        O447   1.262       .  A
N443        O940   1.263   1_556  A
N446        O449   1.263       .  A
N446        O450   1.263       .  A
O448        N935   1.263   1_554  A
C451        C452   1.402       .  A
C451        C456   1.392       .  A
C451        H458   1.085   1_655  S
C452        C453   1.417       .  A
C453        C454   1.412       .  A
C453        N460   1.440       .  S
C454        C455   1.404       .  A
C454        H459   1.085       .  S
C455        C456   1.408       .  A
C456        N457   1.436       .  S
N457        O461   1.262   1_655  A
N457        O462   1.262       .  A
N460        O463   1.263       .  A
N460        O464   1.263       .  A
C465        C466   1.406       .  A
C465        C470   1.403       .  A
C465        H472   1.085   1_655  S
C466        C467   1.417       .  A
C467        C468   1.403       .  A
C467        N474   1.433       .  S
C468        C469   1.399       .  A
C468        H473   1.085       .  S
C469        C470   1.413       .  A
C470        N471   1.442   1_655  S
N471        O475   1.263       .  A
N471        O476   1.262   1_455  A
N474        O477   1.262       .  A
N474        O478   1.262       .  A
C479        C480   1.402       .  A
C479        C484   1.402       .  A
C479        H486   1.084       .  S
C480        C481   1.416       .  A
C481        C482   1.405       .  A
C481        N488   1.439       .  S
C482        C483   1.403       .  A
C482        H487   1.085       .  S
C483        C484   1.415       .  A
C484        N485   1.438       .  S
N485        O489   1.262       .  A
N485        O490   1.263   1_556  A
N488        O491   1.263       .  A
N488        O492   1.263   1_556  A
In493       O495   2.233       .  S
In493       O496   2.245   1_554  S
In493       O504   2.235   1_554  S
In493       O498   2.240       .  S
In493       O500   2.236       .  S
In493       O501   2.263   1_554  S
In493       O502   2.258       .  S
In493       O505   2.234   1_554  S
C494        O500   1.259       .  A
C494        O502   1.258       .  A
C494        C947   1.470       .  S
O495        C503   1.261   1_554  A
O496        C503   1.264       .  A
C497        O504   1.262       .  A
C497        O498   1.262   1_556  A
C497        C961   1.466       .  S
C499        O501   1.263       .  A
C499        O505   1.258       .  A
C499        C930   1.489       .  S
C503        C972   1.478       .  S
In506       O508   2.242       .  S
In506       O509   2.244       .  S
In506       O517   2.237       .  S
In506       O511   2.244       .  S
In506       O513   2.270   1_556  S
In506       O514   2.235       .  S
In506       O515   2.217   1_556  S
In506       O518   2.247   1_556  S
C507        O513   1.263       .  A
C507        O515   1.258       .  A
C507        C902   1.485       .  S
O508        C516   1.261       .  A
O509        C516   1.261       .  A
C510        O517   1.261       .  A
C510        O511   1.263       .  A
C510        C916   1.469       .  S
C512        O514   1.261       .  A
C512        O518   1.262   1_556  A
C512        C975   1.477       .  S
C516        C891   1.486       .  S
In519       O521   2.248       .  S
In519       O522   2.248       .  S
In519       O530   2.247       .  S
In519       O524   2.249       .  S
C520        O526   1.263       .  A
C520        O528   1.260       .  A
C520        C877   1.486       .  S
O521        C529   1.256       .  A
O522        C529   1.259       .  A
C523        O530   1.260       .  A
C523        O524   1.260       .  A
C523        C863   1.472       .  S
C525        O527   1.262       .  A
C525        O531   1.262       .  A
C525        C846   1.471       .  S
C529        C905   1.472       .  S
In532       O534   2.246       .  S
In532       O535   2.241   1_554  S
In532       O543   2.239   1_554  S
In532       O537   2.252       .  S
In532       O539   2.242       .  S
In532       O540   2.257   1_554  S
In532       O541   2.254       .  S
In532       O544   2.239       .  S
C533        O539   1.261       .  A
C533        O541   1.259       .  A
C533        C807   1.474       .  S
O534        C542   1.262       .  A
O535        C542   1.262   1_556  A
C536        O543   1.260       .  A
C536        O537   1.260   1_556  A
C536        C818   1.477       .  S
C538        O540   1.263       .  A
C538        O544   1.259   1_556  A
C538        C933   1.484       .  S
C542        C835   1.474   1_554  S
In545       O547   2.230       .  S
In545       O548   2.258       .  S
In545       O556   2.241       .  S
In545       O550   2.243       .  S
In545       O552   2.251   1_556  S
In545       O553   2.246       .  S
In545       O554   2.235   1_556  S
In545       O557   2.242   1_556  S
C546        O552   1.263       .  A
C546        O554   1.260       .  A
C546        C874   1.481       .  S
O547        C555   1.259       .  A
O548        C555   1.263       .  A
C549        O556   1.261       .  A
C549        O550   1.263       .  A
C549        C790   1.487       .  S
C551        O553   1.262       .  A
C551        O557   1.260   1_556  A
C551        C832   1.475       .  S
C555        C888   1.483       .  S
In558       O560   2.221   1_455  S
In558       O561   2.245       .  S
In558       O565   2.262   1_455  S
In558       O567   2.205       .  S
C559        O565   1.266       .  A
C559        O567   1.260   1_655  A
C559        C944   1.476       .  S
O560        C568   1.261   1_655  A
O561        C568   1.265       .  A
C562        O569   1.262   1_655  A
C562        O563   1.264       .  A
C562        C762   1.472       .  S
C564        O566   1.267       .  A
C564        O570   1.260   1_455  A
C564        C804   1.484       .  S
C568        C779   1.484       .  S
In571       O573   2.212       .  S
In571       O574   2.255       .  S
In571       O582   2.231       .  S
In571       O576   2.246       .  S
In571       O578   2.269       .  S
In571       O579   2.245       .  S
In571       O580   2.218       .  S
In571       O583   2.239       .  S
C572        O578   1.265       .  A
C572        O580   1.257       .  A
C572        C734   1.486       .  S
O573        C581   1.261       .  A
O574        C581   1.264       .  A
C575        O582   1.261       .  A
C575        O576   1.265       .  A
C575        C919   1.487       .  S
C577        O579   1.261       .  A
C577        O583   1.260       .  A
C577        C793   1.470       .  S
C581        C748   1.473       .  S
In584       O586   2.234       .  S
In584       O587   2.233       .  S
In584       O595   2.240       .  S
In584       O589   2.235       .  S
In584       O591   2.245       .  S
In584       O592   2.253       .  S
In584       O593   2.240       .  S
In584       O596   2.233       .  S
C585        O591   1.261       .  A
C585        O593   1.258       .  A
C585        C706   1.470       .  S
O586        C594   1.263       .  A
O587        C594   1.261       .  A
C588        O595   1.262       .  A
C588        O589   1.261       .  A
C588        C776   1.466       .  S
C590        O592   1.262       .  A
C590        O596   1.257       .  A
C590        C692   1.483       .  S
C594        C723   1.483       .  S
In597       O599   2.223       .  S
In597       O600   2.250       .  S
In597       O608   2.231       .  S
In597       O602   2.239       .  S
In597       O604   2.267       .  S
In597       O605   2.241       .  S
In597       O606   2.221       .  S
In597       O609   2.233       .  S
C598        O604   1.263       .  A
C598        O606   1.258       .  A
C598        C751   1.469       .  S
O599        C607   1.260       .  A
O600        C607   1.265       .  A
C601        O608   1.261       .  A
C601        O602   1.264       .  A
C601        C860   1.482       .  S
C603        O605   1.263       .  A
C603        O609   1.260       .  A
C603        C720   1.484       .  S
C607        C678   1.482       .  S
In610       O612   2.236       .  S
In610       O613   2.243       .  S
In610       O621   2.229       .  S
In610       O615   2.255       .  S
In610       O617   2.246       .  S
In610       O618   2.245       .  S
In610       O619   2.237       .  S
In610       O622   2.228       .  S
C611        O617   1.263       .  A
C611        O619   1.261       .  A
C611        C653   1.480       .  S
O612        C620   1.261       .  A
O613        C620   1.260       .  A
C614        O621   1.259       .  A
C614        O615   1.262       .  A
C614        C765   1.477       .  S
C616        O618   1.264       .  A
C616        O622   1.260       .  A
C616        C695   1.480       .  S
C620        C664   1.483       .  S
In623       O625   2.221       .  S
In623       O626   2.254       .  S
In623       O634   2.234       .  S
In623       O628   2.242       .  S
In623       O630   2.244       .  S
In623       O631   2.253       .  S
In623       O632   2.235       .  S
In623       O635   2.218       .  S
C624        O630   1.265       .  A
C624        O632   1.259       .  A
C624        C737   1.481       .  S
O625        C633   1.259       .  A
O626        C633   1.266       .  A
C627        O634   1.260       .  A
C627        O628   1.264       .  A
C627        C849   1.485       .  S
C629        O631   1.266       .  A
C629        O635   1.259       .  A
C629        C667   1.483       .  S
C633        C681   1.485       .  S
In636       O638   2.235       .  S
In636       O639   2.243   1_455  S
In636       O647   2.226   1_455  S
In636       O641   2.256       .  S
In636       O643   2.267       .  S
In636       O644   2.247   1_455  S
In636       O645   2.207   1_455  S
In636       O648   2.228       .  S
C637        O643   1.267       .  A
C637        O645   1.258   1_455  A
C637        C709   1.484       .  S
O638        C646   1.262   1_455  A
O639        C646   1.261       .  A
C640        O647   1.261   1_455  A
C640        O641   1.265       .  A
C640        C821   1.479       .  S
C642        O644   1.263       .  A
C642        O648   1.262   1_655  A
C642        C650   1.486       .  S
C646        C958   1.486       .  S
C649        C650   1.406       .  A
C649        C654   1.401       .  A
C649        H656   1.084   1_655  S
C650        C651   1.416       .  A
C651        C652   1.405       .  A
C651        N658   1.435       .  S
C652        C653   1.404       .  A
C652        H657   1.085       .  S
C653        C654   1.413       .  A
C654        N655   1.436       .  S
N655        O659   1.262   1_655  A
N655        O660   1.263       .  A
N658        O661   1.262       .  A
N658        O662   1.263       .  A
C663        C664   1.403       .  A
C663        C668   1.399       .  A
C663        H670   1.084       .  S
C664        C665   1.415       .  A
C665        C666   1.403       .  A
C665        N672   1.431       .  S
C666        C667   1.404       .  A
C666        H671   1.084       .  S
C667        C668   1.416       .  A
C668        N669   1.433       .  S
N669        O673   1.262       .  A
N669        O674   1.262       .  A
N672        O675   1.262       .  A
N672        O676   1.262       .  A
C677        C678   1.402       .  A
C677        C682   1.400       .  A
C677        H684   1.085       .  S
C678        C679   1.416       .  A
C679        C680   1.405       .  A
C679        N686   1.437       .  S
C680        C681   1.404       .  A
C680        H685   1.084       .  S
C681        C682   1.416       .  A
C682        N683   1.431       .  S
N683        O687   1.262       .  A
N683        O688   1.262       .  A
N686        O689   1.263       .  A
N686        O690   1.263       .  A
C691        C692   1.404       .  A
C691        C696   1.404       .  A
C691        H698   1.084       .  S
C692        C693   1.415   1_455  A
C693        C694   1.399       .  A
C693        N700   1.431       .  S
C694        C695   1.402       .  A
C694        H699   1.085       .  S
C695        C696   1.416   1_655  A
C696        N697   1.438       .  S
N697        O701   1.263       .  A
N697        O702   1.263       .  A
N700        O703   1.262       .  A
N700        O704   1.262       .  A
C705        C706   1.398       .  A
C705        C710   1.393       .  A
C705        H712   1.085       .  S
C706        C707   1.418       .  A
C707        C708   1.411       .  A
C707        N714   1.442       .  S
C708        C709   1.406       .  A
C708        H713   1.084       .  S
C709        C710   1.415       .  A
C710        N711   1.432   1_455  S
N711        O715   1.262       .  A
N711        O716   1.262       .  A
N714        O717   1.261       .  A
N714        O718   1.263       .  A
C719        C720   1.405       .  A
C719        C724   1.402       .  A
C719        H726   1.084       .  S
C720        C721   1.415       .  A
C721        C722   1.400       .  A
C721        N728   1.433       .  S
C722        C723   1.404       .  A
C722        H727   1.085       .  S
C723        C724   1.416       .  A
C724        N725   1.434       .  S
N725        O729   1.262       .  A
N725        O730   1.262       .  A
N728        O731   1.262       .  A
N728        O732   1.262       .  A
C733        C734   1.405       .  A
C733        C738   1.405       .  A
C733        H740   1.084       .  S
C734        C735   1.418       .  A
C735        C736   1.400       .  A
C735        N742   1.435       .  S
C736        C737   1.401       .  A
C736        H741   1.084       .  S
C737        C738   1.416       .  A
C738        N739   1.433       .  S
N739        O743   1.262       .  A
N739        O744   1.262       .  A
N742        O745   1.262       .  A
N742        O746   1.263       .  A
C747        C748   1.401       .  A
C747        C752   1.392       .  A
C747        H754   1.085       .  S
C748        C749   1.420       .  A
C749        C750   1.413       .  A
C749        N756   1.440       .  S
C750        C751   1.403       .  A
C750        H755   1.084       .  S
C751        C752   1.408       .  A
C752        N753   1.437       .  S
N753        O757   1.263       .  A
N753        O758   1.262       .  A
N756        O759   1.261       .  A
N756        O760   1.263       .  A
C761        C762   1.403       .  A
C761        C766   1.407       .  A
C761        H768   1.084       .  S
C762        C763   1.412       .  A
C763        C764   1.399       .  A
C763        N770   1.437       .  S
C764        C765   1.403       .  A
C764        H769   1.084       .  S
C765        C766   1.416       .  A
C766        N767   1.439       .  S
N767        O771   1.263       .  A
N767        O772   1.263       .  A
N770        O773   1.262   1_655  A
N770        O774   1.263       .  A
C775        C776   1.398       .  A
C775        C780   1.399       .  A
C775        H782   1.085       .  S
C776        C777   1.413       .  A
C777        C778   1.406       .  A
C777        N784   1.442       .  S
C778        C779   1.406       .  A
C778        H783   1.084       .  S
C779        C780   1.418       .  A
C780        N781   1.436   1_455  S
N781        O785   1.262       .  A
N781        O786   1.263       .  A
N784        O787   1.263       .  A
N784        O788   1.263       .  A
C789        C790   1.407       .  A
C789        C794   1.406       .  A
C789        H796   1.084       .  S
C790        C791   1.417       .  A
C791        C792   1.402       .  A
C791        N798   1.435       .  S
C792        C793   1.400       .  A
C792        H797   1.085       .  S
C793        C794   1.413       .  A
C794        N795   1.442       .  S
N795        O799   1.263       .  A
N795        O800   1.263       .  A
N798        O801   1.263       .  A
N798        O802   1.262       .  A
C803        C804   1.407       .  A
C803        C808   1.413       .  A
C803        H810   1.084       .  S
C804        C805   1.416       .  A
C805        C806   1.396       .  A
C805        N812   1.436   1_455  S
C806        C807   1.399       .  A
C806        H811   1.085       .  S
C807        C808   1.417       .  A
C808        N809   1.443       .  S
N809        O813   1.263       .  A
N809        O814   1.263       .  A
N812        O815   1.262       .  A
N812        O816   1.262       .  A
C817        C818   1.402       .  A
C817        C822   1.401       .  A
C817        H824   1.085       .  S
C818        C819   1.416       .  A
C819        C820   1.408       .  A
C819        N826   1.438       .  S
C820        C821   1.404       .  A
C820        H825   1.084       .  S
C821        C822   1.415       .  A
C822        N823   1.439   1_455  S
N823        O827   1.263       .  A
N823        O828   1.263       .  A
N826        O829   1.261   1_556  A
N826        O830   1.263       .  A
C831        C832   1.402   1_554  A
C831        C836   1.403       .  A
C831        H838   1.085       .  S
C832        C833   1.416       .  A
C833        C834   1.406       .  A
C833        N840   1.438       .  S
C834        C835   1.403       .  A
C834        H839   1.085       .  S
C835        C836   1.415   1_556  A
C836        N837   1.439       .  S
N837        O841   1.263       .  A
N837        O842   1.261       .  A
N840        O843   1.261       .  A
N840        O844   1.263       .  A
C845        C846   1.400       .  A
C845        C850   1.402       .  A
C845        H852   1.085       .  S
C846        C847   1.412       .  A
C847        C848   1.404       .  A
C847        N854   1.438       .  S
C848        C849   1.405       .  A
C848        H853   1.084       .  S
C849        C850   1.417       .  A
C850        N851   1.434       .  S
N851        O855   1.262       .  A
N851        O856   1.263       .  A
N854        O857   1.261       .  A
N854        O858   1.263       .  A
C859        C860   1.405       .  A
C859        C864   1.402       .  A
C859        H866   1.084       .  S
C860        C861   1.418       .  A
C861        C862   1.402       .  A
C861        N868   1.435       .  S
C862        C863   1.400       .  A
C862        H867   1.085       .  S
C863        C864   1.410       .  A
C864        N865   1.435       .  S
N865        O869   1.263       .  A
N865        O870   1.262       .  A
N868        O871   1.263       .  A
N868        O872   1.262       .  A
C873        C874   1.404       .  A
C873        C878   1.404       .  A
C873        H880   1.084       .  S
C874        C875   1.414       .  A
C875        C876   1.402       .  A
C875        N882   1.435       .  S
C876        C877   1.406       .  A
C876        H881   1.084       .  S
C877        C878   1.415       .  A
C878        N879   1.434       .  S
N879        O884   1.262       .  A
N882        O885   1.263       .  A
N882        O886   1.262       .  A
C887        C888   1.404       .  A
C887        C892   1.402       .  A
C887        H894   1.084       .  S
C889        C890   1.404       .  A
C889        N896   1.434       .  S
C890        C891   1.406       .  A
C890        H895   1.084       .  S
C892        N893   1.435       .  S
N893        O897   1.263       .  A
N896        O899   1.262       .  A
N896        O900   1.262       .  A
C901        C902   1.405       .  A
C901        C906   1.397       .  A
C901        H908   1.084       .  S
C902        C903   1.416       .  A
C903        C904   1.407       .  A
C903        N910   1.432       .  S
C904        C905   1.404       .  A
C904        H909   1.084       .  S
C905        C906   1.411       .  A
N907        O911   1.263       .  A
N907        O912   1.262       .  A
N910        O913   1.262       .  A
N910        O914   1.262       .  A
C915        C916   1.399       .  A
C915        C920   1.400       .  A
C915        H922   1.085       .  S
C916        C917   1.414       .  A
C917        C918   1.407       .  A
C917        N924   1.442       .  S
C918        C919   1.407       .  A
C918        H923   1.084       .  S
C919        C920   1.417       .  A
C920        N921   1.433       .  S
N921        O925   1.262       .  A
N921        O926   1.262       .  A
N924        O927   1.262       .  A
N924        O928   1.263       .  A
C929        C930   1.408   1_455  A
C929        C934   1.403       .  A
C929        H936   1.084       .  S
C931        C932   1.406       .  A
C931        N938   1.436       .  S
C932        C933   1.406   1_655  A
C932        H937   1.084       .  S
C934        N935   1.436       .  S
N935        O939   1.262       .  A
N938        O941   1.263       .  A
N938        O942   1.263       .  A
C943        C944   1.402       .  A
C943        C948   1.392       .  A
C943        H950   1.085   1_655  S
C944        C945   1.417       .  A
C945        C946   1.412       .  A
C945        N952   1.440       .  S
C946        C947   1.404       .  A
C946        H951   1.085       .  S
C947        C948   1.408       .  A
C948        N949   1.436       .  S
N949        O953   1.262   1_655  A
N949        O954   1.262       .  A
N952        O955   1.263       .  A
N952        O956   1.263       .  A
C957        C958   1.406       .  A
C957        C962   1.403       .  A
C957        H964   1.085   1_655  S
C958        C959   1.417       .  A
C959        C960   1.403       .  A
C959        N966   1.433       .  S
C960        C961   1.399       .  A
C960        H965   1.085       .  S
C961        C962   1.413       .  A
C962        N963   1.442   1_655  S
N963        O967   1.263       .  A
N963        O968   1.262   1_455  A
N966        O969   1.262       .  A
N966        O970   1.262       .  A
C971        C972   1.402       .  A
C971        C976   1.402       .  A
C971        H978   1.084       .  S
C972        C973   1.416       .  A
C973        C974   1.405       .  A
C973        N980   1.439       .  S
C974        C975   1.403       .  A
C974        H979   1.085       .  S
C975        C976   1.415       .  A
C976        N977   1.438       .  S
N977        O981   1.262       .  A
N977        O982   1.263   1_556  A
N980        O983   1.263       .  A
N980        O984   1.263   1_556  A
