geometry optimzed in LAMMPS
_audit_creation_date              2020-11-30 
_audit_creation_method            'lammps2cif' 
_symmetry_space_group_name_H-M    'P1' 
_symmetry_Int_Tables_number       1 
_symmetry_cell_setting            triclinic 
loop_ 
_symmetry_equiv_pos_as_xyz 
  x,y,z 
_cell_length_a                    26.67372793854429 
_cell_length_b                    26.78695338842952 
_cell_length_c                    28.871165298346483 
_cell_angle_alpha                 90.18689632165525 
_cell_angle_beta                  89.67597434657065 
_cell_angle_gamma                 89.96639676625048 
loop_ 
_atom_site_label 
_atom_site_type_symbol 
_atom_site_fract_x 
_atom_site_fract_y 
_atom_site_fract_z 
_atom_site_charge 
C1          C  0.55704118  0.04993513  0.15940994    -0.02280
C2          C  0.55556928  0.04993274  0.21296358    -0.02280
C3          C  0.55540740  0.99105183  0.15944666    -0.02280
C4          C  0.55335877  0.99134824  0.21452805    -0.02280
C5          C  0.49761672  0.05181248  0.15811432    -0.02280
C6          C  0.49665250  0.05224210  0.21220841    -0.02280
C7          C  0.49674430  0.99247923  0.15808309    -0.02280
C8          C  0.49410868  0.99317778  0.21235230    -0.02280
In9        In  0.33821064  0.88356188  0.43620756     1.36870
C10         C  0.37970345  0.88280575  0.51941652     0.77790
O11         O  0.36821646  0.96090246  0.43914255    -0.60650
O12         O  0.28977814  0.95396679  0.42978715    -0.51560
C13         C  0.38005246  0.88356065  0.35275241     0.70460
O14         O  0.40405707  0.86870367  0.38776104    -0.46420
C15         C  0.26879886  0.81323398  0.43855406     0.75160
O16         O  0.40304726  0.86650013  0.48426536    -0.58280
O17         O  0.25901180  0.85887946  0.44408306    -0.48370
O18         O  0.33382928  0.89125503  0.51290437    -0.54710
C19         C  0.32688577  0.98283145  0.43420225     0.85340
O20         O  0.33391139  0.89062225  0.35997800    -0.56600
O21         O  0.31452439  0.80310308  0.43171242    -0.59900
In22       In  0.15564943  0.70864952  0.43537264     1.36870
C23         C  0.15312630  0.66416683  0.35286574     0.77790
O24         O  0.08225548  0.70754265  0.47285631    -0.60650
O25         O  0.08543195  0.75091670  0.41194201    -0.51560
C26         C  0.15539743  0.64266146  0.50376815     0.70460
O27         O  0.15314931  0.63035200  0.46162458    -0.46420
C28         C  0.22936765  0.77540100  0.43914011     0.75160
O29         O  0.17746979  0.64672704  0.38644331    -0.58280
O30         O  0.18451041  0.78590862  0.44862525    -0.48370
O31         O  0.13429489  0.70653290  0.36064208    -0.54710
C32         C  0.05857621  0.73256981  0.44363513     0.85340
O33         O  0.16474920  0.68836723  0.51080756    -0.56600
O34         O  0.23713365  0.73031259  0.42922074    -0.59900
In35       In  0.14799662  0.31448270  0.42908878     1.36870
C36         C  0.15155139  0.36915769  0.50512202     0.77790
O37         O  0.07350665  0.35037050  0.43126854    -0.60650
O38         O  0.07480391  0.27107104  0.43497157    -0.51560
C39         C  0.14610852  0.34582192  0.34250333     0.70460
O40         O  0.17040804  0.36896887  0.37328053    -0.46420
C41         C  0.21827162  0.24491456  0.43410858     0.75160
O42         O  0.16291821  0.38650095  0.46583937    -0.58280
O43         O  0.17231524  0.23519029  0.43927399    -0.48370
O44         O  0.14615695  0.32241937  0.50650677    -0.54710
C45         C  0.04881266  0.31061638  0.43452640     0.85340
O46         O  0.12992557  0.30365081  0.35474918    -0.56600
O47         O  0.22830003  0.29022830  0.42659302    -0.59900
In48       In  0.32847335  0.13740043  0.43981627     1.36870
C49         C  0.38310247  0.13992794  0.36400811     0.77790
O50         O  0.36216654  0.06248547  0.44702410    -0.60650
O51         O  0.28584586  0.06384367  0.42747264    -0.51560
C52         C  0.37098679  0.14694951  0.52211640     0.70460
O53         O  0.38849992  0.16694779  0.48607689    -0.46420
C54         C  0.25719252  0.20649243  0.43640654     0.75160
O55         O  0.39980640  0.15356125  0.40270349    -0.58280
O56         O  0.24774609  0.16129483  0.44492670    -0.48370
O57         O  0.33660231  0.13151816  0.36272528    -0.54710
C58         C  0.32424250  0.03770874  0.43580063     0.85340
O59         O  0.32806844  0.12782681  0.51692410    -0.56600
O60         O  0.30283146  0.21623225  0.42977320    -0.59900
In61       In  0.90490525  0.71571233  0.43952939     1.36870
C62         C  0.90034987  0.67073154  0.52159326     0.77790
O63         O  0.98097678  0.69851544  0.46561606    -0.60650
O64         O  0.97575176  0.75980734  0.41982515    -0.51560
C65         C  0.90845532  0.66240559  0.36112841     0.70460
O66         O  0.88911336  0.64575849  0.39787678    -0.46420
C67         C  0.83147656  0.78290260  0.43846253     0.75160
O68         O  0.88744949  0.64951392  0.48431362    -0.58280
O69         O  0.87676639  0.79464040  0.44385951    -0.48370
O70         O  0.90936998  0.71685327  0.51737031    -0.54710
C71         C  0.00368011  0.73194398  0.44369454     0.85340
O72         O  0.92112394  0.70759628  0.36314064    -0.56600
O73         O  0.82355406  0.73684592  0.43397572    -0.59900
In74       In  0.71908115  0.88795254  0.43324661     1.36870
C75         C  0.67569457  0.88373479  0.35109481     0.77790
O76         O  0.68526179  0.96363516  0.43605368    -0.60650
O77         O  0.76444460  0.96017633  0.42963069    -0.51560
C78         C  0.66842590  0.88761813  0.51267713     0.70460
O79         O  0.64984373  0.87281237  0.47498954    -0.46420
C80         C  0.79129959  0.82002449  0.43707146     0.75160
O81         O  0.65782759  0.86144787  0.38586662    -0.58280
O82         O  0.79980154  0.86619705  0.43956041    -0.48370
O83         O  0.71954649  0.90021090  0.35635712    -0.54710
C84         C  0.72573746  0.98727157  0.43266114     0.85340
O85         O  0.71500756  0.89563570  0.51113590    -0.56600
O86         O  0.74574614  0.80836817  0.43293236    -0.59900
In87       In  0.89528313  0.32284053  0.44282245     1.36870
C88         C  0.89458765  0.37780872  0.36656783     0.77790
O89         O  0.97207278  0.35387356  0.44082804    -0.60650
O90         O  0.96562457  0.27488202  0.43705496    -0.51560
C91         C  0.89555535  0.35508248  0.53024770     0.70460
O92         O  0.87194166  0.37803371  0.49901021    -0.46420
C93         C  0.82501902  0.25298582  0.43729448     0.75160
O94         O  0.88444760  0.39558560  0.40607260    -0.58280
O95         O  0.87118137  0.24351675  0.43418447    -0.48370
O96         O  0.89750489  0.33085377  0.36503689    -0.54710
C97         C  0.99414364  0.31253643  0.43758415     0.85340
O98         O  0.91307905  0.31351841  0.51753394    -0.56600
O99         O  0.81435407  0.29858082  0.44271280    -0.59900
In100      In  0.71967399  0.14090663  0.43466056     1.36870
C101        C  0.68455158  0.13849509  0.52055301     0.77790
O102        O  0.68501808  0.06575877  0.43478118    -0.60650
O103        O  0.76474216  0.06885902  0.43103500    -0.51560
C104        C  0.67710964  0.14462446  0.35177193     0.70460
O105        O  0.65476036  0.16017272  0.38785236    -0.46420
C106        C  0.78709779  0.21349839  0.43548501     0.75160
O107        O  0.65919282  0.15736844  0.48804465    -0.58280
O108        O  0.79881641  0.16800438  0.43169199    -0.48370
O109        O  0.72907028  0.12741114  0.50984838    -0.54710
C110        C  0.72572981  0.04199297  0.43262986     0.85340
O111        O  0.72230539  0.13268489  0.35800031    -0.56600
O112        O  0.74063861  0.22213121  0.43824432    -0.59900
C113        C  0.05208409  0.48020277  0.15567452    -0.02280
C114        C  0.05934827  0.48019692  0.20965834    -0.02280
C115        C  0.99365213  0.48098828  0.16230713    -0.02280
C116        C  0.00053656  0.48276675  0.21620914    -0.02280
C117        C  0.05514819  0.53883576  0.15635325    -0.02280
C118        C  0.05999786  0.53958355  0.21054488    -0.02280
C119        C  0.99604691  0.54088333  0.16013681    -0.02280
C120        C  0.00098455  0.54097525  0.21455806    -0.02280
C121        C  0.91328660  0.40950940  0.32846920     0.00060
C122        C  0.95478723  0.43879960  0.33877832    -0.11820
C123        C  0.98455401  0.45971869  0.30398011     0.02290
C124        C  0.96954470  0.45777948  0.25643686    -0.00030
C125        C  0.92540308  0.43018228  0.24721688    -0.11760
C126        C  0.89891936  0.40442193  0.28208044     0.02180
H127        H  0.96753022  0.44052368  0.37445679     0.15160
H128        H  0.91146263  0.42645613  0.21301816     0.15160
C129        C  0.85749776  0.37264960  0.26940825     0.36810
C130        C  0.03328191  0.47463550  0.32000591     0.36720
N131        N  0.82447467  0.34695409  0.25917765    -0.43530
N132        N  0.07121456  0.48402528  0.33718043    -0.43530
C133        C  0.90929417  0.37759194  0.07555545     0.00060
C134        C  0.95354919  0.36091913  0.09597431    -0.11820
C135        C  0.97870309  0.38987791  0.12883181     0.02290
C136        C  0.96063141  0.43861099  0.14049735    -0.00030
C137        C  0.90958608  0.44685586  0.13027377    -0.11760
C138        C  0.88493272  0.41895550  0.09574877     0.02180
H139        H  0.97073086  0.32646088  0.08391945     0.15160
H140        H  0.89000428  0.47744164  0.14686301     0.15160
C141        C  0.83563813  0.43405146  0.08110146     0.36810
C142        C  0.02187154  0.36609213  0.14859460     0.36720
N143        N  0.79600570  0.44607106  0.06943320    -0.43530
N144        N  0.05543060  0.34274023  0.16166866    -0.43530
C145        C  0.92684934  0.62922045  0.32386513     0.00060
C146        C  0.89878735  0.61644432  0.28450876    -0.11820
C147        C  0.92017014  0.58651966  0.24878248     0.02290
C148        C  0.97045908  0.56917268  0.25252147    -0.00030
C149        C  0.99433452  0.57811422  0.29484132    -0.11760
C150        C  0.97506406  0.60967800  0.32832009     0.02180
H151        H  0.86068323  0.63008930  0.28144752     0.15160
H152        H  0.03070067  0.56369527  0.30147647     0.15160
C153        C  0.00835062  0.62480404  0.36484900     0.36810
C154        C  0.88815522  0.57237040  0.21110020     0.36720
N155        N  0.03702246  0.63723726  0.39233960    -0.43530
N156        N  0.85993984  0.56175548  0.18243803    -0.43530
C157        C  0.91345841  0.64230606  0.06413727     0.00060
C158        C  0.95063876  0.66182749  0.09287123    -0.11820
C159        C  0.97911055  0.63114683  0.12229889     0.02290
C160        C  0.96660999  0.57939310  0.12880754    -0.00030
C161        C  0.92848100  0.56178808  0.09954506    -0.11760
C162        C  0.90109770  0.59185628  0.06921611     0.02180
H163        H  0.96255842  0.70014413  0.08737879     0.15160
H164        H  0.92269046  0.52347854  0.09572161     0.15160
C165        C  0.86193743  0.56905439  0.04201215     0.36810
C166        C  0.02700608  0.65287623  0.13267155     0.36720
N167        N  0.83032886  0.55098177  0.02040144    -0.43530
N168        N  0.06466640  0.67378904  0.13727566    -0.43530
C169        C  0.13072731  0.36946628  0.29856891     0.00060
C170        C  0.16121258  0.40531872  0.27714844    -0.11820
C171        C  0.14169954  0.43721634  0.24299424     0.02290
C172        C  0.08914859  0.43760183  0.23405277    -0.00030
C173        C  0.06253245  0.39523860  0.24912028    -0.11760
C174        C  0.08192733  0.36213994  0.28147824     0.02180
H175        H  0.19998055  0.40907912  0.28771581     0.15160
H176        H  0.02495498  0.38838896  0.23743605     0.15160
C177        C  0.04837786  0.32463296  0.29989082     0.36810
C178        C  0.17693009  0.46822599  0.21812808     0.36720
N179        N  0.02113348  0.29496860  0.31461002    -0.43530
N180        N  0.20677515  0.49067997  0.19782691    -0.43530
C181        C  0.13361877  0.40152223  0.04299200     0.00060
C182        C  0.09114339  0.42961817  0.03326285    -0.11820
C183        C  0.06227772  0.45121467  0.06843639     0.02290
C184        C  0.07940247  0.45147348  0.11540218    -0.00030
C185        C  0.12288592  0.42293538  0.12414607    -0.11760
C186        C  0.14896948  0.39707462  0.08905774     0.02180
H187        H  0.07731829  0.43026626  0.99791306     0.15160
H188        H  0.13487203  0.41670364  0.15854116     0.15160
C189        C  0.19058982  0.36537546  0.10122595     0.36810
C190        C  0.01310241  0.46614100  0.05343399     0.36720
N191        N  0.22387797  0.33984708  0.11100075    -0.43530
N192        N  0.97488011  0.47676534  0.03747593    -0.43530
C193        C  0.09141293  0.57615259  0.24130488     0.00060
C194        C  0.12552111  0.55583171  0.27301209    -0.11820
C195        C  0.15081852  0.58396581  0.30636289     0.02290
C196        C  0.14175093  0.63546238  0.31003415    -0.00030
C197        C  0.11037739  0.65760035  0.27736769    -0.11760
C198        C  0.08284304  0.62889285  0.24570217     0.02180
H199        H  0.12844564  0.51693878  0.27631777     0.15160
H200        H  0.10162707  0.69703336  0.28098286     0.15160
C201        C  0.03771085  0.65367790  0.23139830     0.36810
C202        C  0.18246942  0.55763662  0.33861103     0.36720
N203        N  0.00123777  0.67604478  0.22490477    -0.43530
N204        N  0.20765557  0.53616502  0.36428390    -0.43530
C205        C  0.13795024  0.60920060  0.04114855     0.00060
C206        C  0.15885841  0.61165036  0.08539393    -0.11820
C207        C  0.13603643  0.58752957  0.12350692     0.02290
C208        C  0.08801209  0.56422937  0.11845251    -0.00030
C209        C  0.06777741  0.56443156  0.07386435    -0.11760
C210        C  0.09338179  0.58216807  0.03540795     0.02180
H211        H  0.19316364  0.63276955  0.09020409     0.15160
H212        H  0.03017576  0.55222729  0.06866256     0.15160
C213        C  0.07157675  0.57223968  0.99076104     0.36810
C214        C  0.16359418  0.59108354  0.16587925     0.36720
N215        N  0.05385361  0.56126652  0.45573094    -0.43530
N216        N  0.18955288  0.59707365  0.19739859    -0.43530
C217        C  0.45769633  0.95914179  0.24155208     0.00060
C218        C  0.47608007  0.91314207  0.25836465    -0.11820
C219        C  0.45164855  0.88573099  0.29337874     0.02290
C220        C  0.40425811  0.90097815  0.30926942    -0.00030
C221        C  0.38184889  0.94174669  0.28795489    -0.11760
C222        C  0.40803325  0.97220238  0.25698898     0.02180
H223        H  0.51061328  0.89864066  0.24558602     0.15160
H224        H  0.34502539  0.95371739  0.29993466     0.15160
C225        C  0.38218164  0.01844686  0.24927556     0.36810
C226        C  0.47634674  0.84268027  0.31267417     0.36720
N227        N  0.35751463  0.05396508  0.24711846    -0.43530
N228        N  0.49640935  0.80828921  0.32814077    -0.43530
C229        C  0.40575469  0.90482167  0.05953708     0.00060
C230        C  0.43928169  0.87887279  0.08808846    -0.11820
C231        C  0.46752508  0.90485550  0.12224762     0.02290
C232        C  0.46717780  0.95829092  0.12370158    -0.00030
C233        C  0.44012040  0.98119895  0.08830231    -0.11760
C234        C  0.40393109  0.95662569  0.06340090     0.02180
H235        H  0.44260379  0.83870581  0.08447180     0.15160
H236        H  0.44527966  0.01903341  0.07907451     0.15160
C237        C  0.36319230  0.98623608  0.04559383     0.36810
C238        C  0.49908372  0.87483473  0.15109644     0.36720
N239        N  0.32923345  0.01051173  0.03524491    -0.43530
N240        N  0.52328090  0.84704629  0.17187143    -0.43530
C241        C  0.41666688  0.12490803  0.32629377     0.00060
C242        C  0.41505443  0.14804399  0.28304279    -0.11820
C243        C  0.44226515  0.12848568  0.24512516     0.02290
C244        C  0.46894110  0.08247181  0.24989224    -0.00030
C245        C  0.47053602  0.06148736  0.29422452    -0.11760
C246        C  0.44652328  0.08243714  0.33215561     0.02180
H247        H  0.39256966  0.18149294  0.27896640     0.15160
H248        H  0.48734565  0.02550596  0.29897956     0.15160
C249        C  0.45130457  0.05721201  0.37612471     0.36810
C250        C  0.44253802  0.15884809  0.20427389     0.36720
N251        N  0.45697006  0.03637286  0.41074921    -0.43530
N252        N  0.44050368  0.18628293  0.17345177    -0.43530
C253        C  0.40119582  0.13892098  0.06458647     0.00060
C254        C  0.37933506  0.11163980  0.10053817    -0.11820
C255        C  0.40851135  0.08316193  0.13091754     0.02290
C256        C  0.46222963  0.08577180  0.12928112    -0.00030
C257        C  0.48286763  0.11726262  0.09537123    -0.11760
C258        C  0.45368183  0.14440285  0.06420661     0.02180
H259        H  0.33897961  0.10623122  0.10044395     0.15160
H260        H  0.52190796  0.11637789  0.08841643     0.15160
C261        C  0.47947783  0.17398789  0.02975629     0.36810
C262        C  0.38147627  0.04153223  0.14980229     0.36720
N263        N  0.50046792  0.19770895  0.00240531    -0.43530
N264        N  0.35681068  0.00703841  0.15793702    -0.43530
C265        C  0.58307454  0.96120532  0.25209630     0.00060
C266        C  0.60161003  0.91280870  0.24151290    -0.11820
C267        C  0.63245903  0.88560726  0.27197726     0.02290
C268        C  0.64271451  0.90527117  0.31582795    -0.00030
C269        C  0.62112475  0.95015370  0.32873149    -0.11760
C270        C  0.59204220  0.97806697  0.29860536     0.02180
H271        H  0.59034297  0.89485387  0.21003352     0.15160
H272        H  0.62814068  0.96434253  0.36343071     0.15160
C273        C  0.57511833  0.02332639  0.32019959     0.36810
C274        C  0.65266616  0.83802423  0.25775190     0.36720
N275        N  0.56512095  0.05764302  0.34290013    -0.43530
N276        N  0.66903771  0.79992344  0.24620167    -0.43530
C277        C  0.58291375  0.95914069  0.12168816     0.00060
C278        C  0.62449567  0.92861268  0.13248666    -0.11820
C279        C  0.65131473  0.90175845  0.09845456     0.02290
C280        C  0.63652184  0.90417560  0.05191574    -0.00030
C281        C  0.59590747  0.93443631  0.04050407    -0.11760
C282        C  0.57212865  0.96441652  0.07364006     0.02180
H283        H  0.64117203  0.93092087  0.16595759     0.15160
H284        H  0.58689520  0.93976840  0.00419188     0.15160
C285        C  0.54522847  0.00604651  0.05457893     0.36810
C286        C  0.69513938  0.87380293  0.11185246     0.36720
N287        N  0.52633092  0.03859817  0.03508903    -0.43530
N288        N  0.73025320  0.85135005  0.12260252    -0.43530
C289        C  0.65141806  0.13388794  0.30725881     0.00060
C290        C  0.67259571  0.09724458  0.27841904    -0.11820
C291        C  0.64398184  0.07225654  0.24508330     0.02290
C292        C  0.59247456  0.08432744  0.23937020    -0.00030
C293        C  0.57505404  0.12788230  0.26199990    -0.11760
C294        C  0.60317313  0.15166379  0.29663760     0.02180
H295        H  0.71045762  0.08431906  0.28496623     0.15160
H296        H  0.53870379  0.14278293  0.25458565     0.15160
C297        C  0.58025051  0.19188965  0.32254244     0.36810
C298        C  0.66844770  0.03109806  0.22211940     0.36720
N299        N  0.56153850  0.22394111  0.34333173    -0.43530
N300        N  0.69113766  0.99848280  0.20607910    -0.43530
C301        C  0.66209809  0.12254292  0.06508251     0.00060
C302        C  0.62778085  0.15252658  0.08955018    -0.11820
C303        C  0.59919370  0.13234800  0.12636425     0.02290
C304        C  0.59884783  0.07986219  0.13351899    -0.00030
C305        C  0.64080600  0.05428881  0.11595760    -0.11760
C306        C  0.67149707  0.07414091  0.08163808     0.02180
H307        H  0.62309182  0.19130142  0.07982257     0.15160
H308        H  0.65065165  0.01837281  0.12862763     0.15160
C309        C  0.70974833  0.04202633  0.06198037     0.36810
C310        C  0.56979960  0.16630630  0.15404097     0.36720
N311        N  0.74023135  0.01591840  0.04665708    -0.43450
N312        N  0.54831920  0.19579932  0.17571978    -0.43530
C313        C  0.55704192  0.04993498  0.65941087    -0.02280
C314        C  0.55557009  0.04993248  0.71296453    -0.02280
C315        C  0.55540805  0.99105169  0.65944740    -0.02280
C316        C  0.55335944  0.99134798  0.71452880    -0.02280
C317        C  0.49761747  0.05181241  0.65811526    -0.02280
C318        C  0.49665330  0.05224200  0.71220938    -0.02280
C319        C  0.49674495  0.99247917  0.65808398    -0.02280
C320        C  0.49410936  0.99317765  0.71235321    -0.02280
In321      In  0.33820797  0.88356274  0.93620719     1.36870
C322        C  0.37970122  0.88280662  0.01941609     0.77790
O323        O  0.36821382  0.96090355  0.93914167    -0.60650
O324        O  0.28977554  0.95396804  0.92978665    -0.51560
C325        C  0.38005119  0.88356051  0.85275240     0.70460
O326        O  0.40405524  0.86870411  0.88776155    -0.46420
C327        C  0.26879551  0.81323501  0.93855441     0.75160
O328        O  0.40304454  0.86650031  0.98426495    -0.58280
O329        O  0.25900867  0.85888070  0.94408215    -0.48370
O330        O  0.33382718  0.89125669  0.01290402    -0.54710
C331        C  0.32688320  0.98283271  0.93420153     0.85340
O332        O  0.33390996  0.89062187  0.85997729    -0.56600
O333        O  0.31452108  0.80310382  0.93171347    -0.59900
In334      In  0.15564558  0.70865112  0.93537237     1.36870
C335        C  0.15312114  0.66417087  0.85286249     0.77790
O336        O  0.08224650  0.70751599  0.97284300    -0.60650
O337        O  0.08542999  0.75093532  0.91195715    -0.51560
C338        C  0.15539628  0.64267215  0.00377592     0.70460
O339        O  0.15315747  0.63035601  0.96163336    -0.46420
C340        C  0.22936406  0.77540210  0.93914086     0.75160
O341        O  0.17746453  0.64673036  0.88643972    -0.58280
O342        O  0.18450671  0.78591004  0.94862563    -0.48370
O343        O  0.13428978  0.70653656  0.86064044    -0.54710
C344        C  0.05857065  0.73256428  0.94363573     0.85340
O345        O  0.16473975  0.68838042  0.01081111    -0.56600
O346        O  0.23713001  0.73031346  0.92922200    -0.59900
In347      In  0.14799778  0.31448887  0.92908766     1.36870
C348        C  0.15154655  0.36916489  0.00512099     0.77790
O349        O  0.07350712  0.35037503  0.93126329    -0.60650
O350        O  0.07480595  0.27107579  0.93496989    -0.51560
C351        C  0.14611200  0.34582731  0.84250193     0.70460
O352        O  0.17041091  0.36897467  0.87327932    -0.46420
C353        C  0.21827243  0.24491981  0.93410874     0.75160
O354        O  0.16291360  0.38650856  0.96583856    -0.58280
O355        O  0.17231574  0.23519612  0.93927252    -0.48370
O356        O  0.14615493  0.32242623  0.00650566    -0.54710
C357        C  0.04881394  0.31062057  0.93452258     0.85340
O358        O  0.12992914  0.30365622  0.85474787    -0.56600
O359        O  0.22830163  0.29023379  0.92659489    -0.59900
In360      In  0.32847189  0.13740221  0.93981565     1.36870
C361        C  0.38310190  0.13992882  0.86400792     0.77790
O362        O  0.36216445  0.06248673  0.94702294    -0.60650
O363        O  0.28584359  0.06384547  0.92747238    -0.51560
C364        C  0.37098557  0.14695002  0.02211583     0.70460
O365        O  0.38849877  0.16694844  0.98607643    -0.46420
C366        C  0.25719256  0.20649656  0.93640634     0.75160
O367        O  0.39980547  0.15356214  0.90270342    -0.58280
O368        O  0.24774497  0.16129890  0.94492526    -0.48370
O369        O  0.33660162  0.13151965  0.86272464    -0.54710
C370        C  0.32424015  0.03771019  0.93579989     0.85340
O371        O  0.32806701  0.12782776  0.01692349    -0.56600
O372        O  0.30283187  0.21623525  0.92977373    -0.59900
In373      In  0.90490186  0.71570747  0.93952470     1.36870
C374        C  0.90035494  0.67073746  0.02159559     0.77790
O375        O  0.98097443  0.69848251  0.96558458    -0.60650
O376        O  0.97574485  0.75982103  0.91984625    -0.51560
C377        C  0.90845214  0.66240962  0.86111703     0.70460
O378        O  0.88910613  0.64575979  0.89786260    -0.46420
C379        C  0.83147318  0.78289719  0.93846010     0.75160
O380        O  0.88744319  0.64951778  0.98432035    -0.58280
O381        O  0.87676404  0.79463538  0.94384933    -0.48370
O382        O  0.90938241  0.71685681  0.01736568    -0.54710
C383        C  0.00367501  0.73193457  0.94369107     0.85340
O384        O  0.92112380  0.70759918  0.86313512    -0.56600
O385        O  0.82354928  0.73683983  0.93397982    -0.59900
In386      In  0.71908080  0.88795056  0.93324676     1.36870
C387        C  0.67569377  0.88373305  0.85109523     0.77790
O388        O  0.68526299  0.96363407  0.93605174    -0.60650
O389        O  0.76444611  0.96017375  0.92963394    -0.51560
C390        C  0.66842576  0.88761768  0.01267725     0.70460
O391        O  0.64984336  0.87281188  0.97498977    -0.46420
C392        C  0.79129696  0.82001997  0.93707021     0.75160
O393        O  0.65782638  0.86144710  0.88586736    -0.58280
O394        O  0.79980078  0.86619246  0.93955475    -0.48370
O395        O  0.71954613  0.90020806  0.85635711    -0.54710
C396        C  0.72573932  0.98726979  0.93266190     0.85340
O397        O  0.71500755  0.89563464  0.01113601    -0.56600
O398        O  0.74574262  0.80836483  0.93293652    -0.59900
In399      In  0.89528466  0.32284288  0.94282008     1.36870
C400        C  0.89458855  0.37781038  0.86656499     0.77790
O401        O  0.97207367  0.35387677  0.94082299    -0.60650
O402        O  0.96562650  0.27488494  0.93705279    -0.51560
C403        C  0.89555916  0.35508705  0.03024491     0.70460
O404        O  0.87194317  0.37803660  0.99900785    -0.46420
C405        C  0.82502159  0.25298639  0.93729371     0.75160
O406        O  0.88444814  0.39558753  0.90606958    -0.58280
O407        O  0.87118411  0.24351825  0.93418336    -0.48370
O408        O  0.89750613  0.33085543  0.86503444    -0.54710
C409        C  0.99414500  0.31253981  0.93758026     0.85340
O410        O  0.91308405  0.31352347  0.01753116    -0.56600
O411        O  0.81435594  0.29858130  0.94271162    -0.59900
In412      In  0.71967748  0.14090540  0.93466113     1.36870
C413        C  0.68455364  0.13849425  0.02055317     0.77790
O414        O  0.68502109  0.06575768  0.93478084    -0.60650
O415        O  0.76474525  0.06885705  0.93103706    -0.51560
C416        C  0.67711240  0.14462291  0.85177271     0.70460
O417        O  0.65476369  0.16017167  0.88785324    -0.46420
C418        C  0.78710089  0.21349816  0.93548490     0.75160
O419        O  0.65919568  0.15736783  0.98804443    -0.58280
O420        O  0.79881997  0.16800422  0.93169202    -0.48370
O421        O  0.72907245  0.12740992  0.00984920    -0.54710
C422        C  0.72573256  0.04199135  0.93263075     0.85340
O423        O  0.72230812  0.13268292  0.85800078    -0.56600
O424        O  0.74064163  0.22213028  0.93824456    -0.59900
C425        C  0.05208586  0.48019937  0.65567080    -0.02280
C426        C  0.05934890  0.48019781  0.70965475    -0.02280
C427        C  0.99365403  0.48098391  0.66230247    -0.02280
C428        C  0.00053694  0.48276629  0.71620441    -0.02280
C429        C  0.05514860  0.53883261  0.65634629    -0.02280
C430        C  0.05999667  0.53958470  0.71053816    -0.02280
C431        C  0.99604732  0.54087816  0.66012828    -0.02280
C432        C  0.00098283  0.54097463  0.71454949    -0.02280
C433        C  0.91328728  0.40951081  0.82846607     0.00060
C434        C  0.95478744  0.43880192  0.83877476    -0.11820
C435        C  0.98455399  0.45972092  0.80397622     0.02290
C436        C  0.96954510  0.45778010  0.75643289    -0.00030
C437        C  0.92540373  0.43018222  0.74721357    -0.11760
C438        C  0.89892022  0.40442231  0.78207744     0.02180
H439        H  0.96753020  0.44052700  0.87445326     0.15160
H440        H  0.91146284  0.42645526  0.71301519     0.15160
C441        C  0.85749893  0.37264941  0.76940560     0.36810
C442        C  0.03328119  0.47463977  0.82000214     0.36720
N443        N  0.82447611  0.34695349  0.75917515    -0.43530
N444        N  0.07121314  0.48403152  0.83717701    -0.43530
C445        C  0.90928995  0.37758641  0.57555861     0.00060
C446        C  0.95354429  0.36091224  0.59597798    -0.11820
C447        C  0.97870098  0.38987247  0.62883257     0.02290
C448        C  0.96063167  0.43860701  0.64049543    -0.00030
C449        C  0.90958669  0.44685396  0.63027238    -0.11760
C450        C  0.88493102  0.41895260  0.59574982     0.02180
H451        H  0.97072415  0.32645256  0.58392446     0.15160
H452        H  0.89000784  0.47744431  0.64685838     0.15160
C453        C  0.83563753  0.43405113  0.58110159     0.36810
C454        C  0.02187124  0.36608819  0.64859361     0.36720
N455        N  0.79600600  0.44607294  0.56943271    -0.43530
N456        N  0.05543195  0.34273819  0.66166698    -0.43530
C457        C  0.92684676  0.62922730  0.82385109     0.00060
C458        C  0.89878294  0.61644657  0.78449676    -0.11820
C459        C  0.92016628  0.58652194  0.74877010     0.02290
C460        C  0.97045491  0.56917372  0.75251014    -0.00030
C461        C  0.99432978  0.57811705  0.79482912    -0.11760
C462        C  0.97506312  0.60968827  0.82830308     0.02180
H463        H  0.86067805  0.63008957  0.78143637     0.15160
H464        H  0.03069503  0.56369668  0.80146530     0.15160
C465        C  0.00835924  0.62482947  0.86481823     0.36810
C466        C  0.88815269  0.57237502  0.71108609     0.36720
N467        N  0.03704488  0.63727370  0.89229196    -0.43530
N468        N  0.85993874  0.56176277  0.68242186    -0.43530
C469        C  0.91345297  0.64229679  0.56413245     0.00060
C470        C  0.95063051  0.66181939  0.59286862    -0.11820
C471        C  0.97910688  0.63113821  0.62229123     0.02290
C472        C  0.96661087  0.57938355  0.62879594    -0.00030
C473        C  0.92848555  0.56177461  0.59953043    -0.11760
C474        C  0.90109921  0.59184442  0.56920436     0.02180
H475        H  0.96254595  0.70013795  0.58738020     0.15160
H476        H  0.92270102  0.52346899  0.59570307     0.15160
C477        C  0.86194239  0.56904164  0.54199688     0.36810
C478        C  0.02700283  0.65286861  0.63266036     0.36720
N479        N  0.83033628  0.55096877  0.52038325    -0.43530
N480        N  0.06466273  0.67378280  0.63726197    -0.43530
C481        C  0.13073070  0.36947113  0.79856726     0.00060
C482        C  0.16121505  0.40532449  0.77714687    -0.11820
C483        C  0.14170126  0.43722115  0.74299224     0.02290
C484        C  0.08915034  0.43760474  0.73405051    -0.00030
C485        C  0.06253535  0.39524098  0.74911806    -0.11760
C486        C  0.08193106  0.36214315  0.78147621     0.02180
H487        H  0.19998275  0.40908636  0.78771462     0.15160
H488        H  0.02495805  0.38839040  0.73743382     0.15160
C489        C  0.04838253  0.32463516  0.79988843     0.36810
C490        C  0.17693063  0.46823265  0.71812646     0.36720
N491        N  0.02113880  0.29497000  0.81460724    -0.43530
N492        N  0.20677419  0.49068923  0.69782588    -0.43530
C493        C  0.13362351  0.40151580  0.54299209     0.00060
C494        C  0.09114642  0.42960827  0.53326193    -0.11820
C495        C  0.06227920  0.45120393  0.56843446     0.02290
C496        C  0.07940460  0.45146758  0.61540014    -0.00030
C497        C  0.12289003  0.42293276  0.62414521    -0.11760
C498        C  0.14897489  0.39707150  0.58905788     0.02180
H499        H  0.07732130  0.43025387  0.49791207     0.15160
H500        H  0.13487739  0.41670449  0.65854045     0.15160
C501        C  0.19059762  0.36537595  0.60122703     0.36810
C502        C  0.01310305  0.46612507  0.55343013     0.36720
N503        N  0.22388783  0.33985057  0.61100259    -0.43530
N504        N  0.97488133  0.47674435  0.53746809    -0.43530
C505        C  0.09141028  0.57615580  0.74129865     0.00060
C506        C  0.12551809  0.55583617  0.77300691    -0.11820
C507        C  0.15081512  0.58397089  0.80635761     0.02290
C508        C  0.14174563  0.63546701  0.81003001    -0.00030
C509        C  0.11037111  0.65760413  0.77736367    -0.11760
C510        C  0.08283939  0.62889616  0.74569590     0.02180
H511        H  0.12844281  0.51694350  0.77631343     0.15160
H512        H  0.10161902  0.69703666  0.78097969     0.15160
C513        C  0.03770870  0.65368104  0.73138792     0.36810
C514        C  0.18246826  0.55764247  0.83860440     0.36720
N515        N  0.00123638  0.67604805  0.72489134    -0.43530
N516        N  0.20765646  0.53617158  0.86427606    -0.43530
C517        C  0.13795774  0.60918578  0.54114012     0.00060
C518        C  0.15885801  0.61164836  0.58538807    -0.11820
C519        C  0.13603534  0.58752946  0.62350139     0.02290
C520        C  0.08801349  0.56422449  0.61844528    -0.00030
C521        C  0.06778492  0.56441653  0.57385439    -0.11760
C522        C  0.09339788  0.58214004  0.53539719     0.02180
H523        H  0.19315822  0.63277528  0.59019971     0.15160
H524        H  0.03018426  0.55221029  0.56865023     0.15160
C525        C  0.07161794  0.57217635  0.49074608     0.36810
C526        C  0.16358986  0.59109066  0.66587502     0.36720
N527        N  0.05378486  0.56135894  0.95575050    -0.43530
N528        N  0.18954683  0.59708612  0.69739473    -0.43530
C529        C  0.45769688  0.95914174  0.74155303     0.00060
C530        C  0.47608041  0.91314201  0.75836585    -0.11820
C531        C  0.45164832  0.88573083  0.79337959     0.02290
C532        C  0.40425759  0.90097794  0.80926968    -0.00030
C533        C  0.38184877  0.94174655  0.78795494    -0.11760
C534        C  0.40803364  0.97220233  0.75698946     0.02180
H535        H  0.51061383  0.89864057  0.74558765     0.15160
H536        H  0.34502512  0.95371726  0.79993428     0.15160
C537        C  0.38218231  0.01844697  0.74927615     0.36810
C538        C  0.47634612  0.84267995  0.81267514     0.36720
N539        N  0.35751543  0.05396529  0.74711915    -0.43530
N540        N  0.49640845  0.80828874  0.82814176    -0.43530
C541        C  0.40575631  0.90482098  0.55953773     0.00060
C542        C  0.43928342  0.87887239  0.58808917    -0.11820
C543        C  0.46752629  0.90485528  0.62224855     0.02290
C544        C  0.46717853  0.95829071  0.62370258    -0.00030
C545        C  0.44012085  0.98119858  0.58830341    -0.11760
C546        C  0.40393193  0.95662496  0.56340181     0.02180
H547        H  0.44260597  0.83870545  0.58447241     0.15160
H548        H  0.44527969  0.01903312  0.57907573     0.15160
C549        C  0.36319281  0.98623490  0.54559473     0.36810
C550        C  0.49908476  0.87483464  0.65109762     0.36720
N551        N  0.32923371  0.01051020  0.53524580    -0.43530
N552        N  0.52328167  0.84704613  0.67187280    -0.43530
C553        C  0.41666669  0.12490855  0.82629393     0.00060
C554        C  0.41505482  0.14804435  0.78304287    -0.11820
C555        C  0.44226600  0.12848592  0.74512559     0.02290
C556        C  0.46894178  0.08247198  0.74989299    -0.00030
C557        C  0.47053623  0.06148772  0.79422538    -0.11760
C558        C  0.44652310  0.08243770  0.83215621     0.02180
H559        H  0.39257015  0.18149333  0.77896617     0.15160
H560        H  0.48734567  0.02550627  0.79898065     0.15160
C561        C  0.45130400  0.05721285  0.87612548     0.36810
C562        C  0.44253935  0.15884830  0.70427430     0.36720
N563        N  0.45696914  0.03637395  0.91075016    -0.43530
N564        N  0.44050531  0.18628317  0.67345218    -0.43530
C565        C  0.40119693  0.13892098  0.56458717     0.00060
C566        C  0.37933606  0.11164008  0.60053900    -0.11820
C567        C  0.40851222  0.08316213  0.63091838     0.02290
C568        C  0.46223051  0.08577177  0.62928195    -0.00030
C569        C  0.48286863  0.11726252  0.59537205    -0.11760
C570        C  0.45368293  0.14440273  0.56420732     0.02180
H571        H  0.33898059  0.10623166  0.60044479     0.15160
H572        H  0.52190894  0.11637769  0.58841725     0.15160
C573        C  0.47947902  0.17398753  0.52975688     0.36810
C574        C  0.38147696  0.04153250  0.64980303     0.36720
N575        N  0.50046919  0.19770839  0.50240580    -0.43530
N576        N  0.35681121  0.00703877  0.65793767    -0.43530
C577        C  0.58307507  0.96120481  0.75209681     0.00060
C578        C  0.60161070  0.91280838  0.74151300    -0.11820
C579        C  0.63245940  0.88560660  0.77197729     0.02290
C580        C  0.64271401  0.90526977  0.81582842    -0.00030
C581        C  0.62112394  0.95015203  0.82873234    -0.11760
C582        C  0.59204210  0.97806589  0.79860613     0.02180
H583        H  0.59034385  0.89485391  0.71003343     0.15160
H584        H  0.62813924  0.96434030  0.86343186     0.15160
C585        C  0.57511843  0.02332533  0.82020044     0.36810
C586        C  0.65266694  0.83802388  0.75775151     0.36720
N587        N  0.56512117  0.05764193  0.84290108    -0.43530
N588        N  0.66903884  0.79992335  0.74620096    -0.43530
C589        C  0.58291428  0.95914066  0.62168865     0.00060
C590        C  0.62449628  0.92861262  0.63248683    -0.11820
C591        C  0.65131507  0.90175837  0.59845453     0.02290
C592        C  0.63652191  0.90417557  0.55191578    -0.00030
C593        C  0.59590747  0.93443632  0.54050441    -0.11760
C594        C  0.57212889  0.96441652  0.57364058     0.02180
H595        H  0.64117289  0.93092071  0.66595765     0.15160
H596        H  0.58689501  0.93976848  0.50419227     0.15160
C597        C  0.54522858  0.00604651  0.55457961     0.36810
C598        C  0.69513976  0.87380274  0.61185217     0.36720
N599        N  0.52633088  0.03859810  0.53508974    -0.43530
N600        N  0.73025358  0.85134975  0.62260201    -0.43530
C601        C  0.65142013  0.13388645  0.80725988     0.00060
C602        C  0.67259726  0.09724311  0.77841978    -0.11820
C603        C  0.64398296  0.07225550  0.74508407     0.02290
C604        C  0.59247568  0.08432671  0.73937136    -0.00030
C605        C  0.57505552  0.12788136  0.76200164    -0.11760
C606        C  0.60317511  0.15166252  0.79663921     0.02180
H607        H  0.71045919  0.08431740  0.78496656     0.15160
H608        H  0.53870515  0.14278209  0.75458796     0.15160
C609        C  0.58025292  0.19188830  0.82254447     0.36810
C610        C  0.66844852  0.03109724  0.72211958     0.36720
N611        N  0.56154125  0.22393971  0.84333410    -0.43530
N612        N  0.69113840  0.99848221  0.70607879    -0.43530
C613        C  0.66209708  0.12254352  0.56508269     0.00060
C614        C  0.62778037  0.15252700  0.58955115    -0.11820
C615        C  0.59919406  0.13234813  0.62636562     0.02290
C616        C  0.59884835  0.07986226  0.63351994    -0.00030
C617        C  0.64080625  0.05428906  0.61595780    -0.11760
C618        C  0.67149663  0.07414147  0.58163792     0.02180
H619        H  0.62309104  0.19130189  0.57982382     0.15160
H620        H  0.65065216  0.01837295  0.62862744     0.15160
C621        C  0.70974774  0.04202721  0.56197954     0.36810
C622        C  0.56980042  0.16630618  0.65404301     0.36720
N623        N  0.74023069  0.01591954  0.54665573    -0.43450
N624        N  0.54832055  0.19579908  0.67572241    -0.43530
loop_ 
_geom_bond_atom_site_label_1 
_geom_bond_atom_site_label_2 
_geom_bond_distance 
_geom_bond_site_symmetry_2 
_ccdc_geom_bond_type 
C1            C2   1.546       .  S
C1            C3   1.578   1_545  S
C1            C5   1.586       .  S
C1          C304   1.562       .  S
C2            C4   1.571   1_545  S
C2            C6   1.573       .  S
C2          C292   1.551       .  S
C3            C4   1.591       .  S
C3            C7   1.566       .  S
C3          C277   1.563       .  S
C4            C8   1.583       .  S
C4          C265   1.572       .  S
C5            C6   1.562       .  S
C5            C7   1.590   1_545  S
C5          C256   1.557       .  S
C6            C8   1.584   1_545  S
C6          C244   1.540       .  S
C7            C8   1.568       .  S
C7          C232   1.565       .  S
C8          C217   1.575       .  S
In9          O11   2.223       .  S
In9          O12   2.294       .  S
In9          O20   2.213       .  S
In9          O14   2.273       .  S
In9          O16   2.271       .  S
In9          O17   2.225       .  S
In9          O18   2.226       .  S
In9          O21   2.250       .  S
C10          O16   1.264       .  A
C10          O18   1.260       .  A
C10         C541   1.476       .  S
O11          C19   1.258       .  A
O12          C19   1.263       .  A
C13          O20   1.261       .  A
C13          O14   1.265       .  A
C13         C220   1.485       .  S
C15          O17   1.260       .  A
C15          O21   1.264       .  A
C15          C28   1.461       .  S
C19          C58   1.472   1_565  S
In22         O24   2.232       .  S
In22         O25   2.294       .  S
In22         O33   2.261       .  S
In22         O27   2.233       .  S
In22         O29   2.249       .  S
In22         O30   2.241       .  S
In22         O31   2.235       .  S
In22         O34   2.256       .  S
C23          O29   1.261       .  A
C23          O31   1.260       .  A
C23         C196   1.487       .  S
O24          C32   1.253       .  A
O25          C32   1.260       .  A
C26          O33   1.266       .  A
C26          O27   1.261       .  A
C26         C517   1.478       .  S
C28          O30   1.257       .  A
C28          O34   1.257       .  A
C32          C71   1.464       .  S
In35         O37   2.207       .  S
In35         O38   2.279       .  S
In35         O46   2.221       .  S
In35         O40   2.256       .  S
In35         O42   2.236       .  S
In35         O43   2.241       .  S
In35         O44   2.245       .  S
In35         O47   2.239       .  S
C36          O42   1.262       .  A
C36          O44   1.261       .  A
C36         C493   1.471       .  S
O37          C45   1.256       .  A
O38          C45   1.266       .  A
C39          O46   1.260       .  A
C39          O40   1.264       .  A
C39         C169   1.480       .  S
C41          O43   1.261       .  A
C41          O47   1.262       .  A
C41          C54   1.463       .  S
C45          C97   1.461   1_455  S
In48         O50   2.209       .  S
In48         O51   2.303       .  S
In48         O59   2.242       .  S
In48         O53   2.234       .  S
In48         O55   2.222       .  S
In48         O56   2.250       .  S
In48         O57   2.240       .  S
In48         O60   2.240       .  S
C49          O55   1.258       .  A
C49          O57   1.261       .  A
C49         C241   1.461       .  S
O50          C58   1.254       .  A
O51          C58   1.265       .  A
C52          O59   1.264       .  A
C52          O53   1.259       .  A
C52         C565   1.487       .  S
C54          O56   1.262       .  A
C54          O60   1.259       .  A
In61         O63   2.217       .  S
In61         O64   2.299       .  S
In61         O72   2.255       .  S
In61         O66   2.264       .  S
In61         O68   2.245       .  S
In61         O69   2.246       .  S
In61         O70   2.251       .  S
In61         O73   2.249       .  S
C62          O68   1.265       .  A
C62          O70   1.265       .  A
C62         C469   1.490       .  S
O63          C71   1.253   1_655  A
O64          C71   1.263   1_655  A
C65          O72   1.258       .  A
C65          O66   1.260       .  A
C65         C145   1.475       .  S
C67          O69   1.259       .  A
C67          O73   1.258       .  A
C67          C80   1.462       .  S
In74         O76   2.220       .  S
In74         O77   2.285       .  S
In74         O85   2.259       .  S
In74         O79   2.238       .  S
In74         O81   2.251       .  S
In74         O82   2.239       .  S
In74         O83   2.245       .  S
In74         O86   2.247       .  S
C75          O81   1.261       .  A
C75          O83   1.260       .  A
C75         C268   1.469       .  S
O76          C84   1.255       .  A
O77          C84   1.264       .  A
C78          O85   1.262       .  A
C78          O79   1.261       .  A
C78         C592   1.480       .  S
C80          O82   1.259       .  A
C80          O86   1.261       .  A
C84         C110   1.466   1_565  S
In87         O89   2.211       .  S
In87         O90   2.278       .  S
In87         O98   2.226       .  S
In87         O92   2.275       .  S
In87         O94   2.241       .  S
In87         O95   2.234       .  S
In87         O96   2.257       .  S
In87         O99   2.255       .  S
C88          O94   1.262       .  A
C88          O96   1.261       .  A
C88         C121   1.477       .  S
O89          C97   1.257       .  A
O90          C97   1.264       .  A
C91          O98   1.260       .  A
C91          O92   1.264       .  A
C91         C445   1.486       .  S
C93          O95   1.260       .  A
C93          O99   1.263       .  A
C93         C106   1.465       .  S
In100       O102   2.216       .  S
In100       O103   2.275       .  S
In100       O111   2.224       .  S
In100       O105   2.263       .  S
In100       O107   2.267       .  S
In100       O108   2.234       .  S
In100       O109   2.217       .  S
In100       O112   2.249       .  S
C101        O107   1.266       .  A
C101        O109   1.260       .  A
C101        C613   1.480       .  S
O102        C110   1.260       .  A
O103        C110   1.266       .  A
C104        O111   1.261       .  A
C104        O105   1.266       .  A
C104        C289   1.487       .  S
C106        O108   1.262       .  A
C106        O112   1.263       .  A
C113        C114   1.572       .  S
C113        C115   1.569   1_455  S
C113        C117   1.573       .  S
C113        C184   1.568       .  S
C114        C116   1.580       .  S
C114        C118   1.591       .  S
C114        C172   1.562       .  S
C115        C116   1.569   1_655  S
C115        C119   1.607       .  S
C115        C136   1.570       .  S
C116        C120   1.560       .  S
C116        C124   1.573   1_455  S
C117        C118   1.571       .  S
C117        C119   1.581   1_455  S
C117        C208   1.557       .  S
C118        C120   1.578       .  S
C118        C193   1.567       .  S
C119        C120   1.577   1_655  S
C119        C160   1.585       .  S
C120        C148   1.555   1_455  S
C121        C122   1.390       .  A
C121        C126   1.401       .  A
C122        C123   1.396       .  A
C122        H127   1.087       .  S
C123        C124   1.433       .  A
C123        C130   1.439   1_655  S
C124        C125   1.417       .  A
C125        C126   1.409       .  A
C125        H128   1.061       .  S
C126        C129   1.443       .  S
C129        N131   1.157       .  T
C130        N132   1.157       .  T
C133        C403   1.486       .  S
C133        C134   1.396       .  A
C133        C138   1.407       .  A
C134        C135   1.398       .  A
C134        H139   1.086       .  S
C135        C136   1.430       .  A
C135        C142   1.437   1_655  S
C136        C137   1.412       .  A
C137        C138   1.410       .  A
C137        H140   1.081       .  S
C138        C141   1.442       .  S
C141        N143   1.157       .  T
C142        N144   1.157       .  T
C145        C146   1.406       .  A
C145        C150   1.395       .  A
C146        C147   1.421       .  A
C146        H151   1.084       .  S
C147        C148   1.424       .  A
C147        C154   1.437       .  S
C148        C149   1.401       .  A
C149        C150   1.379       .  A
C149        H152   1.063   1_655  S
C150        C153   1.440   1_655  S
C153        N155   1.154       .  T
C154        N156   1.157       .  T
C157        C374   1.490       .  S
C157        C158   1.397       .  A
C157        C162   1.399       .  A
C158        C159   1.409       .  A
C158        H163   1.087       .  S
C159        C160   1.439       .  A
C159        C166   1.437   1_655  S
C160        C161   1.406       .  A
C161        C162   1.400       .  A
C161        H164   1.043       .  S
C162        C165   1.445       .  S
C165        N167   1.157       .  T
C166        N168   1.159       .  T
C169        C170   1.402       .  A
C169        C174   1.408       .  A
C170        C171   1.409       .  A
C170        H175   1.084       .  S
C171        C172   1.427       .  A
C171        C178   1.444       .  S
C172        C173   1.408       .  A
C173        C174   1.392       .  A
C173        H176   1.075       .  S
C174        C177   1.446       .  S
C177        N179   1.157       .  T
C178        N180   1.156       .  T
C181        C348   1.471       .  S
C181        C182   1.390       .  A
C181        C186   1.399       .  A
C182        C183   1.395       .  A
C182        H187   1.087   1_554  S
C183        C184   1.433       .  A
C183        C190   1.440       .  S
C184        C185   1.413       .  A
C185        C186   1.406       .  A
C185        H188   1.059       .  S
C186        C189   1.443       .  S
C189        N191   1.157       .  T
C190        N192   1.157   1_455  T
C193        C194   1.405       .  A
C193        C198   1.436       .  A
C194        C195   1.398       .  A
C194        H199   1.049       .  S
C195        C196   1.404       .  A
C195        C202   1.446       .  S
C196        C197   1.398       .  A
C197        C198   1.404       .  A
C197        H200   1.086       .  S
C198        C201   1.438       .  S
C201        N203   1.159       .  T
C202        N204   1.157       .  T
C205        C338   1.478       .  S
C205        C206   1.398       .  A
C205        C210   1.403       .  A
C206        C207   1.413       .  A
C206        H211   1.085       .  S
C207        C208   1.433       .  A
C207        C214   1.434       .  S
C208        C209   1.399       .  A
C209        C210   1.386       .  A
C209        H212   1.066       .  S
C210        C213   1.441   1_554  S
C213        N527   1.156       .  T
C214        N216   1.157       .  T
N215        C525   1.156       .  T
C217        C218   1.414       .  A
C217        C222   1.438       .  A
C218        C219   1.408       .  A
C218        H223   1.063       .  S
C219        C220   1.402       .  A
C219        C226   1.443       .  S
C220        C221   1.392       .  A
C221        C222   1.397       .  A
C221        H224   1.087       .  S
C222        C225   1.436   1_565  S
C225        N227   1.158       .  T
C226        N228   1.157       .  T
C229        C322   1.476       .  S
C229        C230   1.405       .  A
C229        C234   1.393       .  A
C230        C231   1.424       .  A
C230        H235   1.084       .  S
C231        C232   1.432       .  A
C231        C238   1.435       .  S
C232        C233   1.398       .  A
C233        C234   1.374       .  A
C233        H236   1.058   1_565  S
C234        C237   1.443       .  S
C237        N239   1.156   1_565  T
C238        N240   1.156       .  T
C241        C242   1.397       .  A
C241        C246   1.400       .  A
C242        C243   1.409       .  A
C242        H247   1.085       .  S
C243        C244   1.430       .  A
C243        C250   1.435       .  S
C244        C245   1.400       .  A
C245        C246   1.383       .  A
C245        H248   1.072       .  S
C246        C249   1.446       .  S
C249        N251   1.157       .  T
C250        N252   1.157       .  T
C253        C364   1.487       .  S
C253        C254   1.396       .  A
C253        C258   1.408       .  A
C254        C255   1.403       .  A
C254        H259   1.086       .  S
C255        C256   1.435       .  A
C255        C262   1.436       .  S
C256        C257   1.405       .  A
C257        C258   1.398       .  A
C257        H260   1.060       .  S
C258        C261   1.445       .  S
C261        N263   1.157       .  T
C262        N264   1.159       .  T
C265        C266   1.419       .  A
C265        C270   1.437       .  A
C266        C267   1.412       .  A
C266        H271   1.071       .  S
C267        C268   1.398       .  A
C267        C274   1.441       .  S
C268        C269   1.382       .  A
C269        C270   1.389       .  A
C269        H272   1.088       .  S
C270        C273   1.433   1_565  S
C273        N275   1.157       .  T
C274        N276   1.157       .  T
C277        C278   1.414       .  A
C277        C282   1.426       .  A
C278        C279   1.408       .  A
C278        H283   1.068       .  S
C279        C280   1.404       .  A
C279        C286   1.443       .  S
C280        C390   1.480       .  S
C280        C281   1.394       .  A
C281        C282   1.396       .  A
C281        H284   1.087       .  S
C282        C285   1.438   1_565  S
C285        N287   1.156       .  T
C286        N288   1.157       .  T
C289        C290   1.402       .  A
C289        C294   1.408       .  A
C290        C291   1.401       .  A
C290        H295   1.085       .  S
C291        C292   1.422       .  A
C291        C298   1.439       .  S
C292        C293   1.412       .  A
C293        C294   1.405       .  A
C293        H296   1.071       .  S
C294        C297   1.443       .  S
C297        N299   1.157       .  T
C298        N300   1.157   1_545  T
C301        C413   1.480       .  S
C301        C302   1.404       .  A
C301        C306   1.406       .  A
C302        C303   1.414       .  A
C302        H307   1.084       .  S
C303        C304   1.422       .  A
C303        C310   1.438       .  S
C304        C305   1.403       .  A
C305        C306   1.389       .  A
C305        H308   1.064       .  S
C306        C309   1.447       .  S
C309        N311   1.157       .  T
C310        N312   1.156       .  T
C313        C314   1.546       .  S
C313        C315   1.578   1_545  S
C313        C317   1.586       .  S
C313        C616   1.562       .  S
C314        C316   1.571   1_545  S
C314        C318   1.573       .  S
C314        C604   1.551       .  S
C315        C316   1.591       .  S
C315        C319   1.566       .  S
C315        C589   1.563       .  S
C316        C320   1.583       .  S
C316        C577   1.572       .  S
C317        C318   1.562       .  S
C317        C319   1.590   1_545  S
C317        C568   1.557       .  S
C318        C320   1.584   1_545  S
C318        C556   1.540       .  S
C319        C320   1.568       .  S
C319        C544   1.565       .  S
C320        C529   1.575       .  S
In321       O323   2.223       .  S
In321       O324   2.294       .  S
In321       O332   2.213       .  S
In321       O326   2.273       .  S
In321       O328   2.271       .  S
In321       O329   2.225       .  S
In321       O330   2.226   1_556  S
In321       O333   2.250       .  S
C322        O328   1.264   1_554  A
C322        O330   1.260       .  A
O323        C331   1.258       .  A
O324        C331   1.263       .  A
C325        O332   1.261       .  A
C325        O326   1.265       .  A
C325        C532   1.485       .  S
C327        O329   1.260       .  A
C327        O333   1.264       .  A
C327        C340   1.461       .  S
C331        C370   1.472   1_565  S
In334       O336   2.232       .  S
In334       O337   2.294       .  S
In334       O345   2.261   1_556  S
In334       O339   2.233       .  S
In334       O341   2.249       .  S
In334       O342   2.241       .  S
In334       O343   2.235       .  S
In334       O346   2.256       .  S
C335        O341   1.261       .  A
C335        O343   1.260       .  A
C335        C508   1.487       .  S
O336        C344   1.253       .  A
O337        C344   1.260       .  A
C338        O345   1.266       .  A
C338        O339   1.261   1_554  A
C340        O342   1.257       .  A
C340        O346   1.257       .  A
C344        C383   1.464       .  S
In347       O349   2.207       .  S
In347       O350   2.279       .  S
In347       O358   2.221       .  S
In347       O352   2.256       .  S
In347       O354   2.236       .  S
In347       O355   2.241       .  S
In347       O356   2.245   1_556  S
In347       O359   2.239       .  S
C348        O354   1.262   1_554  A
C348        O356   1.261       .  A
O349        C357   1.256       .  A
O350        C357   1.266       .  A
C351        O358   1.260       .  A
C351        O352   1.264       .  A
C351        C481   1.480       .  S
C353        O355   1.261       .  A
C353        O359   1.262       .  A
C353        C366   1.463       .  S
C357        C409   1.461   1_455  S
In360       O362   2.209       .  S
In360       O363   2.303       .  S
In360       O371   2.242   1_556  S
In360       O365   2.234       .  S
In360       O367   2.222       .  S
In360       O368   2.250       .  S
In360       O369   2.240       .  S
In360       O372   2.240       .  S
C361        O367   1.258       .  A
C361        O369   1.261       .  A
C361        C553   1.461       .  S
O362        C370   1.254       .  A
O363        C370   1.265       .  A
C364        O371   1.264       .  A
C364        O365   1.259   1_554  A
C366        O368   1.262       .  A
C366        O372   1.259       .  A
In373       O375   2.217       .  S
In373       O376   2.299       .  S
In373       O384   2.255       .  S
In373       O378   2.264       .  S
In373       O380   2.245       .  S
In373       O381   2.246       .  S
In373       O382   2.251   1_556  S
In373       O385   2.249       .  S
C374        O380   1.265   1_554  A
C374        O382   1.265       .  A
O375        C383   1.253   1_655  A
O376        C383   1.263   1_655  A
C377        O384   1.258       .  A
C377        O378   1.260       .  A
C377        C457   1.475       .  S
C379        O381   1.259       .  A
C379        O385   1.258       .  A
C379        C392   1.462       .  S
In386       O388   2.220       .  S
In386       O389   2.285       .  S
In386       O397   2.259   1_556  S
In386       O391   2.238       .  S
In386       O393   2.251       .  S
In386       O394   2.239       .  S
In386       O395   2.245       .  S
In386       O398   2.247       .  S
C387        O393   1.261       .  A
C387        O395   1.260       .  A
C387        C580   1.469       .  S
O388        C396   1.255       .  A
O389        C396   1.264       .  A
C390        O397   1.262       .  A
C390        O391   1.261   1_554  A
C392        O394   1.259       .  A
C392        O398   1.261       .  A
C396        C422   1.466   1_565  S
In399       O401   2.211       .  S
In399       O402   2.278       .  S
In399       O410   2.226   1_556  S
In399       O404   2.275       .  S
In399       O406   2.241       .  S
In399       O407   2.234       .  S
In399       O408   2.257       .  S
In399       O411   2.255       .  S
C400        O406   1.262       .  A
C400        O408   1.261       .  A
C400        C433   1.477       .  S
O401        C409   1.257       .  A
O402        C409   1.264       .  A
C403        O410   1.260       .  A
C403        O404   1.264   1_554  A
C405        O407   1.260       .  A
C405        O411   1.263       .  A
C405        C418   1.465       .  S
In412       O414   2.216       .  S
In412       O415   2.275       .  S
In412       O423   2.224       .  S
In412       O417   2.263       .  S
In412       O419   2.267       .  S
In412       O420   2.234       .  S
In412       O421   2.217   1_556  S
In412       O424   2.249       .  S
C413        O419   1.266   1_554  A
C413        O421   1.260       .  A
O414        C422   1.260       .  A
O415        C422   1.266       .  A
C416        O423   1.261       .  A
C416        O417   1.266       .  A
C416        C601   1.487       .  S
C418        O420   1.262       .  A
C418        O424   1.263       .  A
C425        C426   1.572       .  S
C425        C427   1.569   1_455  S
C425        C429   1.573       .  S
C425        C496   1.568       .  S
C426        C428   1.580       .  S
C426        C430   1.591       .  S
C426        C484   1.562       .  S
C427        C428   1.569   1_655  S
C427        C431   1.607       .  S
C427        C448   1.570       .  S
C428        C432   1.560       .  S
C428        C436   1.573   1_455  S
C429        C430   1.571       .  S
C429        C431   1.581   1_455  S
C429        C520   1.557       .  S
C430        C432   1.578       .  S
C430        C505   1.567       .  S
C431        C432   1.577   1_655  S
C431        C472   1.585       .  S
C432        C460   1.555   1_455  S
C433        C434   1.390       .  A
C433        C438   1.401       .  A
C434        C435   1.396       .  A
C434        H439   1.087       .  S
C435        C436   1.433       .  A
C435        C442   1.439   1_655  S
C436        C437   1.417       .  A
C437        C438   1.409       .  A
C437        H440   1.061       .  S
C438        C441   1.443       .  S
C441        N443   1.157       .  T
C442        N444   1.157       .  T
C445        C446   1.396       .  A
C445        C450   1.407       .  A
C446        C447   1.398       .  A
C446        H451   1.086       .  S
C447        C448   1.430       .  A
C447        C454   1.437   1_655  S
C448        C449   1.412       .  A
C449        C450   1.410       .  A
C449        H452   1.081       .  S
C450        C453   1.442       .  S
C453        N455   1.157       .  T
C454        N456   1.157       .  T
C457        C458   1.406       .  A
C457        C462   1.395       .  A
C458        C459   1.421       .  A
C458        H463   1.084       .  S
C459        C460   1.424       .  A
C459        C466   1.437       .  S
C460        C461   1.401       .  A
C461        C462   1.379       .  A
C461        H464   1.063   1_655  S
C462        C465   1.440   1_655  S
C465        N467   1.154       .  T
C466        N468   1.157       .  T
C469        C470   1.397       .  A
C469        C474   1.399       .  A
C470        C471   1.409       .  A
C470        H475   1.087       .  S
C471        C472   1.439       .  A
C471        C478   1.437   1_655  S
C472        C473   1.407       .  A
C473        C474   1.400       .  A
C473        H476   1.043       .  S
C474        C477   1.445       .  S
C477        N479   1.157       .  T
C478        N480   1.159       .  T
C481        C482   1.402       .  A
C481        C486   1.408       .  A
C482        C483   1.409       .  A
C482        H487   1.084       .  S
C483        C484   1.427       .  A
C483        C490   1.444       .  S
C484        C485   1.408       .  A
C485        C486   1.392       .  A
C485        H488   1.075       .  S
C486        C489   1.446       .  S
C489        N491   1.157       .  T
C490        N492   1.156       .  T
C493        C494   1.390       .  A
C493        C498   1.399       .  A
C494        C495   1.395       .  A
C494        H499   1.087       .  S
C495        C496   1.433       .  A
C495        C502   1.440       .  S
C496        C497   1.413       .  A
C497        C498   1.406       .  A
C497        H500   1.059       .  S
C498        C501   1.443       .  S
C501        N503   1.157       .  T
C502        N504   1.157   1_455  T
C505        C506   1.405       .  A
C505        C510   1.436       .  A
C506        C507   1.398       .  A
C506        H511   1.049       .  S
C507        C508   1.404       .  A
C507        C514   1.446       .  S
C508        C509   1.398       .  A
C509        C510   1.404       .  A
C509        H512   1.086       .  S
C510        C513   1.438       .  S
C513        N515   1.159       .  T
C514        N516   1.157       .  T
C517        C518   1.398       .  A
C517        C522   1.403       .  A
C518        C519   1.413       .  A
C518        H523   1.085       .  S
C519        C520   1.433       .  A
C519        C526   1.434       .  S
C520        C521   1.399       .  A
C521        C522   1.386       .  A
C521        H524   1.066       .  S
C522        C525   1.441       .  S
C526        N528   1.157       .  T
C529        C530   1.414       .  A
C529        C534   1.438       .  A
C530        C531   1.408       .  A
C530        H535   1.063       .  S
C531        C532   1.402       .  A
C531        C538   1.443       .  S
C532        C533   1.392       .  A
C533        C534   1.397       .  A
C533        H536   1.087       .  S
C534        C537   1.436   1_565  S
C537        N539   1.158       .  T
C538        N540   1.157       .  T
C541        C542   1.405       .  A
C541        C546   1.393       .  A
C542        C543   1.424       .  A
C542        H547   1.084       .  S
C543        C544   1.432       .  A
C543        C550   1.435       .  S
C544        C545   1.398       .  A
C545        C546   1.374       .  A
C545        H548   1.058   1_565  S
C546        C549   1.443       .  S
C549        N551   1.156   1_565  T
C550        N552   1.156       .  T
C553        C554   1.397       .  A
C553        C558   1.400       .  A
C554        C555   1.409       .  A
C554        H559   1.085       .  S
C555        C556   1.430       .  A
C555        C562   1.435       .  S
C556        C557   1.400       .  A
C557        C558   1.383       .  A
C557        H560   1.072       .  S
C558        C561   1.446       .  S
C561        N563   1.157       .  T
C562        N564   1.157       .  T
C565        C566   1.396       .  A
C565        C570   1.408       .  A
C566        C567   1.403       .  A
C566        H571   1.086       .  S
C567        C568   1.435       .  A
C567        C574   1.436       .  S
C568        C569   1.405       .  A
C569        C570   1.398       .  A
C569        H572   1.060       .  S
C570        C573   1.445       .  S
C573        N575   1.157       .  T
C574        N576   1.159       .  T
C577        C578   1.419       .  A
C577        C582   1.437       .  A
C578        C579   1.412       .  A
C578        H583   1.071       .  S
C579        C580   1.398       .  A
C579        C586   1.441       .  S
C580        C581   1.382       .  A
C581        C582   1.389       .  A
C581        H584   1.088       .  S
C582        C585   1.433   1_565  S
C585        N587   1.157       .  T
C586        N588   1.157       .  T
C589        C590   1.414       .  A
C589        C594   1.426       .  A
C590        C591   1.408       .  A
C590        H595   1.068       .  S
C591        C592   1.404       .  A
C591        C598   1.443       .  S
C592        C593   1.394       .  A
C593        C594   1.396       .  A
C593        H596   1.087       .  S
C594        C597   1.438   1_565  S
C597        N599   1.156       .  T
C598        N600   1.157       .  T
C601        C602   1.402       .  A
C601        C606   1.408       .  A
C602        C603   1.401       .  A
C602        H607   1.085       .  S
C603        C604   1.422       .  A
C603        C610   1.439       .  S
C604        C605   1.412       .  A
C605        C606   1.405       .  A
C605        H608   1.071       .  S
C606        C609   1.443       .  S
C609        N611   1.157       .  T
C610        N612   1.157   1_545  T
C613        C614   1.404       .  A
C613        C618   1.406       .  A
C614        C615   1.414       .  A
C614        H619   1.084       .  S
C615        C616   1.422       .  A
C615        C622   1.438       .  S
C616        C617   1.403       .  A
C617        C618   1.389       .  A
C617        H620   1.064       .  S
C618        C621   1.447       .  S
C621        N623   1.157       .  T
C622        N624   1.156       .  T
