geometry optimzed in LAMMPS
_audit_creation_date              2020-11-30 
_audit_creation_method            'lammps2cif' 
_symmetry_space_group_name_H-M    'P1' 
_symmetry_Int_Tables_number       1 
_symmetry_cell_setting            triclinic 
loop_ 
_symmetry_equiv_pos_as_xyz 
  x,y,z 
_cell_length_a                    30.60567187 
_cell_length_b                    30.668403396119952 
_cell_length_c                    30.61781497578584 
_cell_angle_alpha                 89.9849465299522 
_cell_angle_beta                  90.03265924256492 
_cell_angle_gamma                 89.93793003398554 
loop_ 
_atom_site_label 
_atom_site_type_symbol 
_atom_site_fract_x 
_atom_site_fract_y 
_atom_site_fract_z 
_atom_site_charge 
O1          O  0.17932475  0.78404675  0.51840008    -0.78800
C2          C  0.16466233  0.69321362  0.41432307     0.82300
O3          O  0.21458032  0.62846512  0.54469715    -0.79900
O4          O  0.30980932  0.68815180  0.41721796    -0.81400
O5          O  0.31281145  0.79859304  0.48973984    -0.81200
O6          O  0.23691012  0.79650731  0.56182037    -0.79800
Zn7        Zn  0.18919940  0.72135757  0.50523425     1.55700
O8          O  0.27394304  0.78985426  0.42835033    -0.81200
Cd9        Cd  0.28237838  0.75699863  0.53239789     1.59700
Cd10       Cd  0.26746350  0.65576920  0.51191979     1.59600
O11         O  0.32689750  0.72557660  0.57518661    -0.81200
O12         O  0.24962078  0.71448018  0.49754994    -1.91700
Cd13       Cd  0.25733510  0.72522045  0.43566457     1.59900
O14         O  0.31767307  0.65584070  0.55677159    -0.81100
O15         O  0.20237980  0.70380537  0.39988749    -0.79800
C16         C  0.18311079  0.64746922  0.56489489     0.82700
C17         C  0.19877054  0.80620000  0.54784287     0.82400
O18         O  0.15466965  0.69855624  0.45422175    -0.78700
C19         C  0.30187984  0.81062835  0.45133998     0.83200
O20         O  0.17069629  0.68590214  0.55576377    -0.78800
C21         C  0.33682553  0.68510251  0.57912451     0.83300
C22         C  0.31383533  0.64754733  0.42448493     0.83700
O23         O  0.29368248  0.62808799  0.45556719    -0.81300
O24         O  0.84683877  0.69694110  0.95628084    -0.78800
C25         C  0.80460000  0.80805374  0.04845657     0.82300
O26         O  0.78489781  0.62761288  0.04565945    -0.79900
O27         O  0.67681146  0.72698648  0.07820289    -0.81400
O28         O  0.72839118  0.79132030  0.93202037    -0.81200
O29         O  0.79988041  0.70583113  0.90173099    -0.79800
Zn30       Zn  0.81285245  0.72073496  0.00733537     1.55700
O31         O  0.68748380  0.79816040  0.99224397    -0.81200
Cd32       Cd  0.74494023  0.72672592  0.93767819     1.59700
Cd33       Cd  0.73309122  0.65668125  0.01276995     1.59600
O34         O  0.69265723  0.69026100  0.91733744    -0.81200
O35         O  0.75236433  0.71523186  0.99946939    -1.91700
Cd36       Cd  0.72043375  0.75836286  0.03470241     1.59900
O37         O  0.70710754  0.62988417  0.95586587    -0.81100
O38         O  0.76597125  0.79991943  0.06206573    -0.79800
C39         C  0.81684817  0.64562785  0.06592700     0.82700
C40         C  0.83697663  0.69316597  0.91616060     0.82400
O41         O  0.82424643  0.78356445  0.02094671    -0.78700
C42         C  0.69887853  0.81075058  0.95423086     0.83200
O43         O  0.83009621  0.68388936  0.05728829    -0.78800
C44         C  0.68793132  0.64969655  0.92435113     0.83300
C45         C  0.66517577  0.68687293  0.08084934     0.83700
O46         O  0.68269936  0.65752809  0.05727553    -0.81300
O47         O  0.19144381  0.55255174  0.15317493    -0.78800
C48         C  0.30026067  0.45882657  0.19697774     0.82300
O49         O  0.12233728  0.46034918  0.21346502    -0.79900
O50         O  0.21963292  0.43143662  0.32508202    -0.81400
O51         O  0.28319921  0.57756402  0.27140537    -0.81200
O52         O  0.19607564  0.60632651  0.20151015    -0.79800
Zn53       Zn  0.21473758  0.50144021  0.18743635     1.55700
O54         O  0.29256850  0.51604840  0.30977391    -0.81200
Cd55       Cd  0.21812789  0.57055048  0.25600136     1.59700
Cd56       Cd  0.14892490  0.49460346  0.26598215     1.59600
O57         O  0.18118034  0.58893157  0.30879221    -0.81200
O58         O  0.20765057  0.50881430  0.24782719    -1.91700
Cd59       Cd  0.25062632  0.47368050  0.27997402     1.59900
O60         O  0.12085262  0.55158242  0.29128382    -0.81100
O61         O  0.29047374  0.44417750  0.23476916    -0.79800
C62         C  0.14149388  0.44069254  0.18172146     0.82700
C63         C  0.18558971  0.59221287  0.16366673     0.82400
O64         O  0.27783110  0.48840896  0.17792860    -0.78700
C65         C  0.30444567  0.55438522  0.29886541     0.83200
O66         O  0.17957718  0.45077478  0.16884252    -0.78800
C67         C  0.14029792  0.58236874  0.31196990     0.83300
C68         C  0.17924839  0.42794789  0.33575139     0.83700
O69         O  0.14972315  0.45045195  0.31696698    -0.81300
O70         O  0.54280546  0.15945994  0.18767649    -0.78800
C71         C  0.45174112  0.20258505  0.29749628     0.82300
O72         O  0.45091248  0.22237648  0.11829782    -0.79900
O73         O  0.42116822  0.33115779  0.21805236    -0.81400
O74         O  0.56756034  0.27701274  0.28234976    -0.81200
O75         O  0.59736037  0.20616111  0.19681965    -0.79800
Zn76       Zn  0.49175667  0.19402015  0.21064713     1.55700
O77         O  0.50818007  0.31900517  0.28920160    -0.81200
Cd78       Cd  0.56124334  0.26125761  0.21729553     1.59700
Cd79       Cd  0.48497018  0.27388831  0.14695137     1.59600
O80         O  0.58084835  0.31378506  0.18093127    -0.81200
O81         O  0.49942145  0.25450344  0.20531699    -1.91700
Cd82       Cd  0.46519319  0.28713954  0.24869423     1.59900
O83         O  0.54172137  0.30058883  0.12042401    -0.81100
O84         O  0.43808995  0.24113596  0.28922404    -0.79800
C85         C  0.43116857  0.19027329  0.13660358     0.82700
C86         C  0.58306784  0.16893713  0.18464510     0.82400
O87         O  0.47948523  0.18290703  0.27342386    -0.78700
C88         C  0.54590991  0.30670251  0.30205397     0.83200
O89         O  0.44103411  0.17671705  0.17455882    -0.78800
C90         C  0.57330506  0.31943717  0.14048490     0.83300
C91         C  0.41766547  0.34232845  0.17778857     0.83700
O92         O  0.44052108  0.32428666  0.14819231    -0.81300
O93         O  0.34676139  0.19518266  0.45433553    -0.78800
C94         C  0.30400621  0.30454440  0.54689160     0.82300
O95         O  0.28688346  0.12686418  0.54500783    -0.79900
O96         O  0.17493246  0.22505979  0.57503621    -0.81400
O97         O  0.22597071  0.28877123  0.42760308    -0.81200
O98         O  0.29975988  0.20316332  0.39965104    -0.79800
Zn99       Zn  0.31251847  0.21917660  0.50492445     1.55700
O100        O  0.18885387  0.29850840  0.48989294    -0.81200
Cd101      Cd  0.24428918  0.22420911  0.43503501     1.59700
Cd102      Cd  0.23392382  0.15433713  0.51168514     1.59600
O103        O  0.19289954  0.18615232  0.41560595    -0.81200
O104        O  0.25182231  0.21312438  0.49704037    -1.91700
Cd105      Cd  0.21951479  0.25615655  0.53196078     1.59900
O106        O  0.20756697  0.12638676  0.45515159    -0.81100
O107        O  0.26570077  0.29537864  0.56075057    -0.79800
C108        C  0.31860333  0.14574248  0.56498016     0.82700
C109        C  0.33697932  0.19094574  0.41426587     0.82400
O110        O  0.32344206  0.28179666  0.51787594    -0.78700
C111        C  0.19883039  0.31013382  0.45113746     0.83200
O112        O  0.33104171  0.18404652  0.55559859    -0.78800
C113        C  0.18826976  0.14569131  0.42334025     0.83300
C114        C  0.16470113  0.18466015  0.57896644     0.83700
O115        O  0.18364961  0.15521473  0.55659868    -0.81300
O116        O  0.77323377  0.52926428  0.17505684    -0.78800
C117        C  0.68304485  0.42456186  0.16193993     0.82300
O118        O  0.61748817  0.55718715  0.21574935    -0.79900
O119        O  0.67987156  0.42647630  0.30709598    -0.81400
O120        O  0.78964213  0.49937344  0.31036644    -0.81200
O121        O  0.78980868  0.57006583  0.23341297    -0.79800
Zn122      Zn  0.71024772  0.51585622  0.18642276     1.55700
O123        O  0.78096933  0.43894541  0.27032638    -0.81200
Cd124      Cd  0.74873941  0.54231150  0.27914899     1.59700
Cd125      Cd  0.64621940  0.52188944  0.26679599     1.59600
O126        O  0.71823144  0.58531656  0.32414958    -0.81200
O127        O  0.70483726  0.50793630  0.24705174    -1.91700
Cd128      Cd  0.71602535  0.44605196  0.25434116     1.59900
O129        O  0.64836729  0.56548953  0.31793441    -0.81100
O130        O  0.69456509  0.41027644  0.19945131    -0.79800
C131        C  0.63544795  0.57626197  0.18299233     0.82700
C132        C  0.79792592  0.55648833  0.19476571     0.82400
O133        O  0.68730625  0.46457457  0.15203949    -0.78700
C134        C  0.80171483  0.46124989  0.29882818     0.83200
O135        O  0.67320196  0.56598081  0.16911353    -0.78800
C136        C  0.67806693  0.58833777  0.33586257     0.83300
C137        C  0.63919046  0.43318703  0.31192300     0.83700
O138        O  0.61909361  0.46457782  0.29269397    -0.81300
O139        O  0.02396638  0.33211056  0.22397674    -0.78800
C140        C  0.91720875  0.34504465  0.31294924     0.82300
O141        O  0.05018313  0.29145631  0.37917141    -0.79900
O142        O  0.92021667  0.20004210  0.31734534    -0.81400
O143        O  0.99247168  0.19647806  0.20796386    -0.81200
O144        O  0.06440165  0.27321341  0.20819187    -0.79800
Zn145      Zn  0.00905843  0.32082858  0.28639144     1.55700
O146        O  0.93226510  0.23707173  0.21627311    -0.81200
Cd147      Cd  0.03570801  0.22767708  0.24850954     1.59700
Cd148      Cd  0.01572522  0.24041747  0.35045248     1.59600
O149        O  0.07838048  0.18244968  0.27904392    -0.81200
O150        O  0.00141695  0.26021032  0.29201431    -1.91700
Cd151      Cd  0.93943303  0.25276289  0.28104558     1.59900
O152        O  0.05946525  0.18933037  0.34902822    -0.81100
O153        O  0.90319993  0.30733691  0.30211446    -0.79800
C154        C  0.06904836  0.32433528  0.36138543     0.82700
C155        C  0.05168335  0.31210754  0.20006803     0.82400
O156        O  0.95719786  0.35519439  0.30836232    -0.78700
C157        C  0.95423194  0.20800601  0.19602009     0.83200
O158        O  0.05872108  0.33842501  0.32375862    -0.78800
C159        C  0.08177906  0.17095765  0.31921683     0.83300
C160        C  0.92748352  0.19514423  0.35791543     0.83700
O161        O  0.95888965  0.21451792  0.37772761    -0.81300
O162        O  0.81152178  0.05070144  0.34773931    -0.78800
C163        C  0.70235619  0.95705410  0.30508134     0.82300
O164        O  0.88153087  0.95918134  0.28581025    -0.79900
O165        O  0.78261425  0.92960917  0.17544115    -0.81400
O166        O  0.71928593  0.07574642  0.22800629    -0.81200
O167        O  0.80620904  0.10456768  0.29954865    -0.79800
Zn168      Zn  0.78851502  0.99956521  0.31353721     1.55700
O169        O  0.71007500  0.01443712  0.18934777    -0.81200
Cd170      Cd  0.78410006  0.06881186  0.24476617     1.59700
Cd171      Cd  0.85365615  0.99325148  0.23369969     1.59600
O172        O  0.82047584  0.08774857  0.19189508    -0.81200
O173        O  0.79481592  0.00705187  0.25276204    -1.91700
Cd174      Cd  0.75156898  0.97209166  0.22062409     1.59900
O175        O  0.88120576  0.05028094  0.20774629    -0.81100
O176        O  0.71130112  0.94364478  0.26654263    -0.79800
C177        C  0.86303197  0.93987758  0.31813361     0.82700
C178        C  0.81704515  0.09041169  0.33733950     0.82400
O179        O  0.72586030  0.98517174  0.32493781    -0.78700
C180        C  0.69843955  0.05296625  0.19989739     0.83200
O181        O  0.82507141  0.94982654  0.33148403    -0.78800
C182        C  0.86124318  0.08120495  0.18768084     0.83300
C183        C  0.82287790  0.92666314  0.16405465     0.90100
O184        O  0.85241092  0.94930095  0.18257426    -0.81300
O185        O  0.67752773  0.72919688  0.48080024    -0.78800
C186        C  0.66273104  0.82073307  0.58398242     0.82300
O187        O  0.71290482  0.88527392  0.45363015    -0.79900
O188        O  0.80682188  0.82580191  0.58196616    -0.81400
O189        O  0.81271722  0.71619900  0.51034062    -0.81200
O190        O  0.73562437  0.71427586  0.43885496    -0.79800
Zn191      Zn  0.68720855  0.79238491  0.49301064     1.55700
O192        O  0.77219475  0.72400025  0.57069142    -0.81200
Cd193      Cd  0.78064881  0.75587967  0.46684115     1.59700
Cd194      Cd  0.76547412  0.85767872  0.48669504     1.59600
O195        O  0.82439656  0.78752677  0.42345103    -0.81200
O196        O  0.74756446  0.79892317  0.50095963    -1.91700
Cd197      Cd  0.75506002  0.78834775  0.56293177     1.59900
O198        O  0.81607969  0.85735751  0.44222617    -0.81100
O199        O  0.70019937  0.80946258  0.59853426    -0.79800
C200        C  0.68155479  0.86648274  0.43311105     0.82700
C201        C  0.69720556  0.70550142  0.45266344     0.82400
O202        O  0.65280779  0.81584745  0.54398382    -0.78700
C203        C  0.80129342  0.70396965  0.54851714     0.83200
O204        O  0.66900029  0.82803049  0.44205655    -0.78800
C205        C  0.83479868  0.82791183  0.41969431     0.83300
C206        C  0.81077684  0.86636438  0.57456177     0.83700
O207        O  0.79089847  0.88570009  0.54319925    -0.81300
C208        C  0.92733059  0.83576244  0.33442568     0.86200
C209        C  0.95772820  0.85769268  0.36800981    -0.54000
C210        C  0.93632027  0.88630528  0.39483997     0.09100
C211        C  0.88683162  0.88960050  0.38596065     0.20100
C212        C  0.89118998  0.81379415  0.36156195    -0.54700
C213        C  0.86986351  0.84187617  0.38898586     0.09200
C214        C  0.90498997  0.87332995  0.31087549    -0.54300
C215        C  0.88458317  0.90186477  0.33728681     0.09800
H216        H  0.99294740  0.85338439  0.36845051     0.14300
H217        H  0.86974159  0.91319352  0.40755757     0.00100
H218        H  0.88343417  0.77931992  0.35952059     0.14600
H219        H  0.90554847  0.87734922  0.27552966     0.14400
C220        C  0.83118922  0.17203549  0.43079947     0.86200
C221        C  0.80761978  0.14578153  0.39530354    -0.54000
C222        C  0.83468650  0.12048404  0.37083863     0.09100
C223        C  0.88348984  0.12373719  0.38455686     0.20100
C224        C  0.85636067  0.13823986  0.45834671    -0.54700
C225        C  0.88433385  0.11284653  0.43417746     0.09200
C226        C  0.86644663  0.19764948  0.40727276    -0.54300
C227        C  0.89397827  0.17300475  0.38344788     0.09800
H228        H  0.77247304  0.14663323  0.39035765     0.14300
H229        H  0.90586728  0.10365474  0.36428777     0.00100
H230        H  0.85367220  0.13592730  0.49362852     0.14600
H231        H  0.86921904  0.23301424  0.40887565     0.14400
C232        C  0.83622318  0.93859106  0.67072293     0.86200
C233        C  0.86409837  0.90307657  0.69274786    -0.54000
C234        C  0.88869521  0.87937771  0.66406336     0.09100
C235        C  0.88279766  0.89386812  0.61584882     0.20100
C236        C  0.86870865  0.96688839  0.64458774    -0.54700
C237        C  0.89324776  0.94330022  0.61547143     0.09200
C238        C  0.80943236  0.91517194  0.63615866    -0.54300
C239        C  0.83331798  0.89218204  0.60740594     0.09800
H240        H  0.86414191  0.89719382  0.72773375     0.14300
H241        H  0.90184691  0.87429817  0.59200938     0.00100
H242        H  0.87111325  0.00205168  0.64787277     0.14600
H243        H  0.77388553  0.91619095  0.63475355     0.14400
C244        C  0.16370570  0.07541407  0.32526344     0.86200
C245        C  0.13019513  0.04690206  0.34948085    -0.54000
C246        C  0.10551183  0.06983969  0.37871706     0.09100
C247        C  0.11645134  0.11898962  0.38052984     0.20100
C248        C  0.13688911  0.11200698  0.30366667    -0.54700
C249        C  0.11172758  0.13500729  0.33252910     0.09200
C250        C  0.19002582  0.09746204  0.36115795    -0.54300
C251        C  0.16584274  0.11992081  0.39014460     0.09800
H252        H  0.12802979  0.01174666  0.34588559     0.14300
H253        H  0.09674375  0.13749695  0.40470491     0.00100
H254        H  0.13760049  0.11881832  0.26886625     0.14600
H255        H  0.22553938  0.09620008  0.36306363     0.14400
C256        C  0.07213029  0.17531394  0.66440726     0.86200
C257        C  0.10738249  0.19815925  0.63666579    -0.54000
C258        C  0.12971270  0.17045720  0.60971846     0.09100
C259        C  0.11453463  0.12235914  0.61361638     0.20100
C260        C  0.04235989  0.15154335  0.63132920    -0.54700
C261        C  0.06476520  0.12325025  0.60475382     0.09200
C262        C  0.09589409  0.13897657  0.68844880    -0.54300
C263        C  0.11731684  0.11089946  0.66234206     0.09800
H264        H  0.11397994  0.23290336  0.63813902     0.14300
H265        H  0.13308291  0.09924097  0.59276163     0.00100
H266        H  0.00705625  0.15502518  0.63066720     0.14600
H267        H  0.09532298  0.13526256  0.72382642     0.14400
C268        C  0.17228409  0.83942631  0.57121177     0.86200
C269        C  0.14988344  0.87431707  0.54276709    -0.54000
C270        C  0.12217482  0.90075218  0.56586368     0.09100
C271        C  0.12031628  0.89009207  0.61524117     0.20100
C272        C  0.19562742  0.86464102  0.60766402    -0.54700
C273        C  0.16868485  0.89147307  0.63068405     0.09200
C274        C  0.13510175  0.81548297  0.59355402    -0.54300
C275        C  0.10770743  0.84135598  0.61608878     0.09800
H276        H  0.15303269  0.87578474  0.50746985     0.14300
H277        H  0.09792775  0.91141707  0.63420703     0.00100
H278        H  0.23052147  0.86264183  0.61388092     0.14600
H279        H  0.13103396  0.78021442  0.59230112     0.14400
O280        O  0.03897215  0.03618764  0.40059871    -0.78800
C281        C  0.95888792  0.91755981  0.42352220     0.82300
O282        O  0.92066556  0.07984146  0.49562251    -0.79900
O283        O  0.94764368  0.93652114  0.56149217    -0.81400
O284        O  0.10149284  0.96736626  0.53140592    -0.81200
O285        O  0.09211103  0.04416011  0.44989459    -0.79800
Zn286      Zn  0.98695167  0.01317108  0.43562849     1.55700
O287        O  0.05105226  0.91559570  0.53986596    -0.81200
Cd288      Cd  0.06491650  0.01948919  0.50645932     1.59700
Cd289      Cd  0.96361916  0.04343517  0.53553538     1.59600
O290        O  0.07011710  0.06847764  0.55146541    -0.81200
O291        O  0.00181733  0.00508194  0.49730201    -1.91700
Cd292      Cd  0.99431816  0.94220336  0.51366470     1.59900
O293        O  0.00276129  0.08700774  0.57223379    -0.81100
O294        O  0.97148457  0.90541192  0.46129597    -0.79800
C295        C  0.91611477  0.08175661  0.45406607     0.82700
C296        C  0.07733790  0.04851141  0.41125653     0.82400
O297        O  0.96308510  0.95678984  0.41031673    -0.78700
C298        C  0.09001629  0.92952742  0.54431382     0.83200
O299        O  0.93924205  0.05833496  0.42866822    -0.78800
C300        C  0.04429931  0.09166893  0.57424326     0.83300
C301        C  0.92437237  0.96272437  0.58377675     0.83700
O302        O  0.92667436  0.00412477  0.57861397    -0.81300
O303        O  0.65479379  0.31695123  0.45471259    -0.78800
C304        C  0.69739102  0.20718213  0.54875834     0.82300
O305        O  0.71724068  0.38699778  0.54623496    -0.79900
O306        O  0.82619173  0.28856035  0.57756108    -0.81400
O307        O  0.77473783  0.22459787  0.43121827    -0.81200
O308        O  0.70251011  0.30982458  0.40063171    -0.79800
Zn309      Zn  0.68900889  0.29403469  0.50634145     1.55700
O310        O  0.81397757  0.21604718  0.49244672    -0.81200
Cd311      Cd  0.75760078  0.28910442  0.43707973     1.59700
Cd312      Cd  0.76892736  0.35864267  0.51251633     1.59600
O313        O  0.80994934  0.32595963  0.41734067    -0.81200
O314        O  0.74974828  0.29994182  0.49898830    -1.91700
Cd315      Cd  0.78173096  0.25684273  0.53464215     1.59900
O316        O  0.79441485  0.38619310  0.45553446    -0.81100
O317        O  0.73593783  0.21565027  0.56251768    -0.79800
C318        C  0.68495697  0.36879463  0.56577597     0.82700
C319        C  0.66488136  0.32133682  0.41469001     0.82400
O320        O  0.67775479  0.23134619  0.52091585    -0.78700
C321        C  0.80321211  0.20419208  0.45399192     0.83200
O322        O  0.67137551  0.33091463  0.55607832    -0.78800
C323        C  0.81402048  0.36663250  0.42413252     0.83300
C324        C  0.83772605  0.32875845  0.58008963     0.83700
O325        O  0.81975261  0.35799425  0.55668667    -0.81300
O326        O  0.04425972  0.66100567  0.68814783    -0.78800
C327        C  0.95168556  0.70377445  0.79880760     0.82300
O328        O  0.95128982  0.72232037  0.61894692    -0.79900
O329        O  0.92148475  0.83197249  0.71777166    -0.81400
O330        O  0.06662607  0.77899731  0.78214967    -0.81200
O331        O  0.09780864  0.70928758  0.69480614    -0.79800
Zn332      Zn  0.99251349  0.69449274  0.71169416     1.55700
O333        O  0.00668162  0.82023879  0.78877157    -0.81200
Cd334      Cd  0.06079481  0.76326278  0.71714801     1.59700
Cd335      Cd  0.98522593  0.77424700  0.64706566     1.59600
O336        O  0.07876130  0.81697471  0.68189481    -0.81200
O337        O  0.99920755  0.75506255  0.70556966    -1.91700
Cd338      Cd  0.96457393  0.78759913  0.74857534     1.59900
O339        O  0.04256323  0.80007767  0.62066223    -0.81100
O340        O  0.93765705  0.74202467  0.78976817    -0.79800
C341        C  0.93231712  0.68966893  0.63713272     0.82700
C342        C  0.08406745  0.67164534  0.68319131     0.82400
O343        O  0.97963802  0.68392634  0.77497962    -0.78700
C344        C  0.04452231  0.80856281  0.80161521     0.83200
O345        O  0.94240773  0.67620802  0.67508677    -0.78800
C346        C  0.07300832  0.82048424  0.64098075     0.83300
C347        C  0.91861209  0.84354327  0.67760489     0.83700
O348        O  0.94136269  0.82529758  0.64802155    -0.81300
C349        C  0.16770559  0.57978501  0.66680135     0.86200
C350        C  0.14205327  0.61549116  0.69099453    -0.54000
C351        C  0.11460149  0.63874463  0.66483531     0.09100
C352        C  0.11558734  0.62398199  0.61626530     0.20100
C353        C  0.13299044  0.55124397  0.64411477    -0.54700
C354        C  0.10580656  0.57429968  0.61686247     0.09200
C355        C  0.19086696  0.60307899  0.62975079    -0.54300
C356        C  0.16418095  0.62556528  0.60284714     0.09800
H357        H  0.14450008  0.62127288  0.72591088     0.14300
H358        H  0.09386577  0.64328388  0.59453933     0.00100
H359        H  0.13199705  0.51597672  0.64711564     0.14600
H360        H  0.22607135  0.60153878  0.62480934     0.14400
C361        C  0.17089479  0.34344981  0.42908202     0.86200
C362        C  0.19339502  0.37112907  0.39367146    -0.54000
C363        C  0.16528233  0.39741114  0.37098586     0.09100
C364        C  0.11711899  0.39298949  0.38610455     0.20100
C365        C  0.14645142  0.37641247  0.45846054    -0.54700
C366        C  0.11787194  0.40241338  0.43574876     0.09200
C367        C  0.13481174  0.31863193  0.40571859    -0.54300
C368        C  0.10635112  0.34409042  0.38379238     0.09800
H369        H  0.22827145  0.36997518  0.38725913     0.14300
H370        H  0.09371393  0.41337436  0.36733458     0.00100
H371        H  0.15005310  0.37777895  0.49371072     0.14600
H372        H  0.13164039  0.28329705  0.40688178     0.14400
C373        C  0.82895618  0.67129997  0.57151207     0.86200
C374        C  0.85081570  0.63624848  0.54291269    -0.54000
C375        C  0.87927865  0.61030037  0.56552551     0.09100
C376        C  0.88210257  0.62116760  0.61483551     0.20100
C377        C  0.80661690  0.64641282  0.60880594    -0.54700
C378        C  0.83413094  0.61990730  0.63164494     0.09200
C379        C  0.86674293  0.69559029  0.59258449    -0.54300
C380        C  0.89481449  0.66988733  0.61496638     0.09800
H381        H  0.84689282  0.63439773  0.50770800     0.14300
H382        H  0.90500569  0.59992213  0.63330898     0.00100
H383        H  0.77185990  0.64849967  0.61566843     0.14600
H384        H  0.87089301  0.73075617  0.59012968     0.14400
C385        C  0.83466644  0.43812154  0.32611933     0.86200
C386        C  0.86924953  0.46619299  0.34951664    -0.54000
C387        C  0.89531723  0.44276110  0.37732291     0.09100
C388        C  0.88447372  0.39341458  0.37848092     0.20100
C389        C  0.86041102  0.40196368  0.30285562    -0.54700
C390        C  0.88671578  0.37846788  0.33003817     0.09200
C391        C  0.80996278  0.41550178  0.36267521    -0.54300
C392        C  0.83537503  0.39236135  0.39016773     0.09800
H393        H  0.87105225  0.50143426  0.34662399     0.14300
H394        H  0.90541235  0.37415807  0.40101787     0.00100
H395        H  0.85878644  0.39614330  0.26789885     0.14600
H396        H  0.77457061  0.41692269  0.36613868     0.14400
C397        C  0.93219775  0.33684823  0.66324961     0.86200
C398        C  0.89647803  0.31463061  0.63584027    -0.54000
C399        C  0.87321058  0.34284364  0.61035823     0.09100
C400        C  0.88825998  0.39099207  0.61516005     0.20100
C401        C  0.96101740  0.36176248  0.63027079    -0.54700
C402        C  0.93786699  0.39059718  0.60505473     0.09200
C403        C  0.90912712  0.37243084  0.68912139    -0.54300
C404        C  0.88662466  0.40110716  0.66439523     0.09800
H405        H  0.89032678  0.27976457  0.63653225     0.14300
H406        H  0.86913118  0.41453532  0.59528892     0.00100
H407        H  0.99627014  0.35825992  0.62833932     0.14600
H408        H  0.91084190  0.37504101  0.72454053     0.14400
C409        C  0.06920644  0.68026555  0.33473300     0.86200
C410        C  0.04205909  0.65757642  0.37032356    -0.54000
C411        C  0.06600529  0.62955550  0.39555008     0.09100
C412        C  0.11513158  0.62776707  0.38307787     0.20100
C413        C  0.10658806  0.70320533  0.35894385    -0.54700
C414        C  0.13076342  0.67597587  0.38446933     0.09200
C415        C  0.09054843  0.64335780  0.30935336    -0.54300
C416        C  0.11443298  0.61582614  0.33403668     0.09800
H417        H  0.00681318  0.66067372  0.37304143     0.14300
H418        H  0.13486832  0.60517166  0.40348574     0.00100
H419        H  0.11255680  0.73807230  0.35717156     0.14600
H420        H  0.08808374  0.63995952  0.27402902     0.14400
O421        O  0.03138275  0.60724942  0.46184225    -0.78800
C422        C  0.91139238  0.58209943  0.54324613     0.82300
O423        O  0.07423575  0.51196983  0.58059853    -0.79900
O424        O  0.93179538  0.44457191  0.55096604    -0.81400
O425        O  0.96206962  0.47738166  0.39821298    -0.81200
O426        O  0.04072114  0.55811957  0.40886833    -0.79800
Zn427      Zn  0.00721452  0.57177278  0.51356557     1.55700
O428        O  0.91050509  0.46765350  0.44873732    -0.81200
Cd429      Cd  0.01464357  0.50155510  0.43521308     1.59700
Cd430      Cd  0.03846396  0.47207266  0.53689385     1.59600
O431        O  0.06308697  0.45579552  0.43005592    -0.81200
O432        O  0.99999447  0.51017702  0.49841744    -1.91700
Cd433      Cd  0.93718239  0.49320306  0.50564998     1.59900
O434        O  0.08221690  0.43582024  0.49752828    -0.81100
O435        O  0.89989109  0.54427488  0.53046181    -0.79800
C436        C  0.07522912  0.55349383  0.58519529     0.82700
C437        C  0.04483208  0.59669572  0.42376969     0.82400
O438        O  0.95028072  0.59626255  0.53814550    -0.78700
C439        C  0.92429638  0.46392882  0.40965855     0.83200
O440        O  0.05157995  0.57839867  0.56176411    -0.78800
C441        C  0.08645299  0.43326080  0.45597734     0.83300
C442        C  0.95782835  0.42240519  0.57448431     0.83700
O443        O  0.99927464  0.42813878  0.57311821    -0.81300
C444        C  0.66988494  0.34279202  0.06824632     0.86200
C445        C  0.64494017  0.37666309  0.04058726    -0.54000
C446        C  0.61682462  0.40193512  0.06466478     0.09100
C447        C  0.61728411  0.39094839  0.11424134     0.20100
C448        C  0.69320804  0.36898670  0.10404170    -0.54700
C449        C  0.66591697  0.39432722  0.12828581     0.09200
C450        C  0.63448585  0.31713308  0.09146582    -0.54300
C451        C  0.60683647  0.34170481  0.11518022     0.09800
H452        H  0.64783088  0.37906989  0.00532686     0.14300
H453        H  0.59475391  0.41093033  0.13444306     0.00100
H454        H  0.72831023  0.36815541  0.10925401     0.14600
H455        H  0.63171937  0.28177075  0.08977781     0.14400
C456        C  0.57023057  0.67985216  0.16326686     0.86200
C457        C  0.60745886  0.70149031  0.13744477    -0.54000
C458        C  0.62981802  0.67313833  0.11120996     0.09100
C459        C  0.61281002  0.62550678  0.11411501     0.20100
C460        C  0.54127488  0.65757516  0.12869415    -0.54700
C461        C  0.56375849  0.62880148  0.10307029     0.09200
C462        C  0.59132493  0.64240736  0.18829325    -0.54300
C463        C  0.61325876  0.61373888  0.16303090     0.09800
H464        H  0.61482418  0.73607597  0.13918564     0.14300
H465        H  0.63074751  0.60172399  0.09343095     0.00100
H466        H  0.50608060  0.66168737  0.12677428     0.14600
H467        H  0.58911506  0.63885880  0.22360191     0.14400
C468        C  0.43479638  0.33601336  0.83521397     0.86200
C469        C  0.46283614  0.36215183  0.86787787    -0.54000
C470        C  0.43888578  0.39102092  0.89230704     0.09100
C471        C  0.38937360  0.39030989  0.88169166     0.20100
C472        C  0.39925709  0.31366421  0.86287141    -0.54700
C473        C  0.37520289  0.34204264  0.88746654     0.09200
C474        C  0.41111788  0.37045850  0.80839964    -0.54300
C475        C  0.38776765  0.39895244  0.83226500     0.09800
H476        H  0.49810765  0.35918683  0.87033913     0.14300
H477        H  0.36953088  0.41394294  0.90070409     0.00100
H478        H  0.39362225  0.27870605  0.86277695     0.14600
H479        H  0.41225428  0.37197696  0.77288191     0.14400
C480        C  0.32723762  0.67146801  0.92704051     0.86200
C481        C  0.30536113  0.64424035  0.89089527    -0.54000
C482        C  0.33386448  0.61770563  0.86892411     0.09100
C483        C  0.38179980  0.62170409  0.88529216     0.20100
C484        C  0.35054193  0.63810925  0.95671422    -0.54700
C485        C  0.37946186  0.61227702  0.93463349     0.09200
C486        C  0.36408473  0.69616360  0.90469051    -0.54300
C487        C  0.39290073  0.67056401  0.88336084     0.09800
H488        H  0.27063650  0.64559843  0.88372086     0.14300
H489        H  0.40571468  0.60083969  0.86772149     0.00100
H490        H  0.34661804  0.63681499  0.99193743     0.14600
H491        H  0.36743935  0.73147207  0.90603441     0.14400
C492        C  0.66522601  0.57579872  0.82873038     0.86200
C493        C  0.63184401  0.54840585  0.85451771    -0.54000
C494        C  0.60634727  0.57268398  0.88224034     0.09100
C495        C  0.61666205  0.62228208  0.88063640     0.20100
C496        C  0.63831159  0.61071595  0.80478659    -0.54700
C497        C  0.61284502  0.63529330  0.83176083     0.09200
C498        C  0.69084721  0.60016779  0.86345270    -0.54300
C499        C  0.66604153  0.62412942  0.89073270     0.09800
H500        H  0.62986141  0.51312500  0.85237703     0.14300
H501        H  0.59649648  0.64260738  0.90288565     0.00100
H502        H  0.63902763  0.61531976  0.76961806     0.14600
H503        H  0.72630809  0.59882740  0.86620685     0.14400
C504        C  0.33365080  0.43608478  0.17003589     0.86200
C505        C  0.36039417  0.39965945  0.19220154    -0.54000
C506        C  0.38706454  0.37754643  0.16398069     0.09100
C507        C  0.38364190  0.39397321  0.11603456     0.20100
C508        C  0.36753396  0.46543425  0.14738031    -0.54700
C509        C  0.39359422  0.44320006  0.11872200     0.09200
C510        C  0.30910520  0.41388448  0.13305317    -0.54300
C511        C  0.33472231  0.39242212  0.10466794     0.09800
H512        H  0.35877398  0.39241626  0.22687044     0.14300
H513        H  0.40447910  0.37611572  0.09231660     0.00100
H514        H  0.36878694  0.50059960  0.15134158     0.14600
H515        H  0.27365393  0.41442144  0.12984786     0.14400
O516        O  0.45029634  0.59717052  0.96113624    -0.78800
C517        C  0.54201824  0.59654979  0.07504412     0.82300
O518        O  0.57429883  0.51158529  0.91970134    -0.79900
O519        O  0.56153521  0.45537796  0.07093817    -0.81400
O520        O  0.40937285  0.46827317  0.04786202    -0.81200
O521        O  0.39939582  0.54566386  0.96846374    -0.79800
Zn522      Zn  0.50687078  0.57186272  0.98483907     1.55700
O523        O  0.45993595  0.47845206  0.09938339    -0.81200
Cd524      Cd  0.43646911  0.49389313  0.99160679     1.59700
Cd525      Cd  0.53800021  0.47201241  0.96294939     1.59600
O526        O  0.43136751  0.44580040  0.94550912    -0.81200
O527        O  0.49916254  0.51037137  0.00012981    -1.91700
Cd528      Cd  0.51308239  0.50140367  0.06347241     1.59900
O529        O  0.49939901  0.42816934  0.92615892    -0.81100
O530        O  0.53761335  0.55806648  0.08997781    -0.79800
C531        C  0.57559352  0.55301049  0.91437800     0.82700
C532        C  0.41118052  0.58363263  0.95651640     0.82400
O533        O  0.52991259  0.60707770  0.03657755    -0.78700
C534        C  0.42247974  0.46499136  0.08719142     0.83200
O535        O  0.55179388  0.57850650  0.93699203    -0.78800
C536        C  0.45796213  0.42307522  0.92317427     0.83300
C537        C  0.58509995  0.43306812  0.04501278     0.83700
O538        O  0.58101747  0.43603610  0.00343918    -0.81300
O539        O  0.31062002  0.46110468  0.65140820    -0.78800
C540        C  0.20163689  0.55640672  0.69289843     0.82300
O541        O  0.37977623  0.55380744  0.71395276    -0.79900
O542        O  0.28019414  0.58332276  0.82234801    -0.81400
O543        O  0.21869914  0.43510838  0.77230268    -0.81200
O544        O  0.30398032  0.40720186  0.69943198    -0.79800
Zn545      Zn  0.28727274  0.51266395  0.68509579     1.55700
O546        O  0.20760338  0.49801611  0.80787297    -0.81200
Cd547      Cd  0.28294604  0.44306131  0.75419387     1.59700
Cd548      Cd  0.35167633  0.51971930  0.76524145     1.59600
O549        O  0.32106865  0.42411302  0.80571807    -0.81200
O550        O  0.29311276  0.50500415  0.74589087    -1.91700
Cd551      Cd  0.24974486  0.54021092  0.77749064     1.59900
O552        O  0.38067461  0.46349712  0.79039971    -0.81100
O553        O  0.21051199  0.56947965  0.73150797    -0.79800
C554        C  0.36146580  0.57302907  0.68153733     0.82700
C555        C  0.31544643  0.42127324  0.66186322     0.82400
O556        O  0.22467712  0.52772895  0.67320203    -0.78700
C557        C  0.19683466  0.45887774  0.79874526     0.83200
O558        O  0.32384869  0.56265519  0.66755752    -0.78800
C559        C  0.36164181  0.43176329  0.80983920     0.83300
C560        C  0.32038623  0.58684873  0.83378662     0.83700
O561        O  0.35015514  0.56398961  0.81594943    -0.81300
C562        C  0.67007137  0.67234156  0.42967814     0.86200
C563        C  0.64495791  0.63967362  0.45863060    -0.54000
C564        C  0.61625199  0.61413316  0.43560072     0.09100
C565        C  0.61606111  0.62385516  0.38592261     0.20100
C566        C  0.69266686  0.64447204  0.39435002    -0.54700
C567        C  0.66437479  0.61870961  0.37130586     0.09200
C568        C  0.63488084  0.69776815  0.40568947    -0.54300
C569        C  0.60652259  0.67302360  0.38337994     0.09800
H570        H  0.64844041  0.63807958  0.49389081     0.14300
H571        H  0.59248257  0.60405818  0.36680611     0.00100
H572        H  0.72758687  0.64507052  0.38817872     0.14600
H573        H  0.63266623  0.73323639  0.40588530     0.14400
C574        C  0.66806488  0.43508740  0.66858078     0.86200
C575        C  0.63453681  0.46487864  0.64531285    -0.54000
C576        C  0.60782367  0.44272140  0.61685737     0.09100
C577        C  0.61711337  0.39315349  0.61530894     0.20100
C578        C  0.64078876  0.39942854  0.69114191    -0.54700
C579        C  0.61383633  0.37733126  0.66333879     0.09200
C580        C  0.69200915  0.41206552  0.63167308    -0.54300
C581        C  0.66582082  0.39086062  0.60346110     0.09800
H582        H  0.63364096  0.50005219  0.64926694     0.14300
H583        H  0.59616098  0.37481834  0.59210542     0.00100
H584        H  0.64257675  0.39235212  0.72584422     0.14600
H585        H  0.72737667  0.41276386  0.62783288     0.14400
C586        C  0.42845095  0.67526157  0.66537376     0.86200
C587        C  0.45857167  0.65129626  0.63269235    -0.54000
C588        C  0.43641348  0.62306323  0.60583112     0.09100
C589        C  0.38655124  0.62245365  0.61402325     0.20100
C590        C  0.39366373  0.69824737  0.63718135    -0.54700
C591        C  0.37158664  0.67064794  0.60998342     0.09200
C592        C  0.40427565  0.63902370  0.68908453    -0.54300
C593        C  0.38317752  0.61098463  0.66268853     0.09800
H594        H  0.49389169  0.65458344  0.63252446     0.14300
H595        H  0.36817493  0.59945298  0.59290939     0.00100
H596        H  0.38708977  0.73301084  0.63862444     0.14600
H597        H  0.40448406  0.63523819  0.72445804     0.14400
C598        C  0.33705636  0.57675006  0.32682438     0.86200
C599        C  0.36448697  0.61252540  0.30487484    -0.54000
C600        C  0.39005942  0.63528816  0.33351545     0.09100
C601        C  0.38524591  0.61976385  0.38168669     0.20100
C602        C  0.37005883  0.54771301  0.35128252    -0.54700
C603        C  0.39523130  0.57036292  0.38032243     0.09200
C604        C  0.31126912  0.59960405  0.36249780    -0.54300
C605        C  0.33591538  0.62176050  0.39123872     0.09800
H606        H  0.36363869  0.61918505  0.27004641     0.14300
H607        H  0.40531678  0.63808590  0.40569493     0.00100
H608        H  0.37174608  0.51251815  0.34778750     0.14600
H609        H  0.27574534  0.59897530  0.36455111     0.14400
C610        C  0.56965927  0.33422196  0.33434637     0.86200
C611        C  0.60729001  0.31144205  0.35853727    -0.54000
C612        C  0.63124271  0.33864106  0.38428363     0.09100
C613        C  0.61524300  0.38680045  0.38294848     0.20100
C614        C  0.54236259  0.35673025  0.37012147    -0.54700
C615        C  0.56623572  0.38472350  0.39554199     0.09200
C616        C  0.59063723  0.37140829  0.30916617    -0.54300
C617        C  0.61418273  0.39907112  0.33394487     0.09800
H618        H  0.61342082  0.27659602  0.35675700     0.14300
H619        H  0.63483401  0.40944222  0.40338727     0.00100
H620        H  0.50714348  0.35349010  0.37286556     0.14600
H621        H  0.58798927  0.37505746  0.27387462     0.14400
C622        C  0.33051642  0.33795815  0.57007546     0.86200
C623        C  0.30667466  0.36397435  0.60566992    -0.54000
C624        C  0.33332595  0.39090291  0.62885552     0.09100
C625        C  0.38195730  0.38895037  0.61436596     0.20100
C626        C  0.35378147  0.37220777  0.54151955    -0.54700
C627        C  0.38129067  0.39875322  0.56477081     0.09200
C628        C  0.36709501  0.31409505  0.59356695    -0.54300
C629        C  0.39414330  0.34017827  0.61629037     0.09800
H630        H  0.27171085  0.36212982  0.61146192     0.14300
H631        H  0.40412809  0.41035291  0.63346931     0.00100
H632        H  0.35101364  0.37341669  0.50618310     0.14600
H633        H  0.37109904  0.27879859  0.59282009     0.14400
O634        O  0.45238741  0.41542060  0.53865692    -0.78800
C635        C  0.54530850  0.41746984  0.42420477     0.82300
O636        O  0.57540848  0.50497122  0.58101882    -0.79900
O637        O  0.56277040  0.55914957  0.42994589    -0.81400
O638        O  0.41006442  0.54413096  0.45120855    -0.81200
O639        O  0.40081683  0.46638130  0.53189194    -0.79800
Zn640      Zn  0.50868330  0.44232576  0.51458598     1.55700
O641        O  0.46195999  0.53621050  0.40059543    -0.81200
Cd642      Cd  0.43719411  0.51877764  0.50785511     1.59700
Cd643      Cd  0.53825086  0.54345319  0.53730619     1.59600
O644        O  0.43155381  0.56762747  0.55309331    -0.81200
O645        O  0.50036102  0.50376778  0.49966860    -1.91700
Cd646      Cd  0.51497417  0.51254136  0.43643588     1.59900
O647        O  0.49871445  0.58700302  0.57359847    -0.81100
O648        O  0.54031620  0.45595157  0.40928210    -0.79800
C649        C  0.57689109  0.46349319  0.58563871     0.82700
C650        C  0.41303880  0.42839324  0.54365177     0.82400
O651        O  0.53331711  0.40706985  0.46279796    -0.78700
C652        C  0.42397275  0.54871888  0.41226963     0.83200
O653        O  0.55330100  0.43824344  0.56253658    -0.78800
C654        C  0.45714326  0.59128016  0.57564536     0.83300
C655        C  0.58526038  0.58268494  0.45572417     0.83700
O656        O  0.58074380  0.58044301  0.49726843    -0.81300
O657        O  0.47774236  0.68247018  0.72426479    -0.78800
C658        C  0.58257323  0.66891454  0.81444382     0.82300
O659        O  0.44981745  0.72255453  0.87983406    -0.79900
O660        O  0.58021232  0.81435553  0.81870144    -0.81400
O661        O  0.50699170  0.81817079  0.70918206    -0.81200
O662        O  0.43653890  0.74064875  0.70796839    -0.79800
Zn663      Zn  0.49122619  0.69359989  0.78713479     1.55700
O664        O  0.56754736  0.77802613  0.71767274    -0.81200
Cd665      Cd  0.46410912  0.78623065  0.74944520     1.59700
Cd666      Cd  0.48481004  0.77370315  0.85170940     1.59600
O667        O  0.42104078  0.83085655  0.78041407    -0.81200
O668        O  0.49885478  0.75414897  0.79311010    -1.91700
Cd669      Cd  0.56079955  0.76164297  0.78239910     1.59900
O670        O  0.44102428  0.82466898  0.85024192    -0.81100
O671        O  0.59674232  0.70661820  0.80363568    -0.79800
C672        C  0.43063924  0.69010706  0.86153821     0.82700
C673        C  0.45025212  0.70210040  0.69974778     0.82400
O674        O  0.54256655  0.65894124  0.80971799    -0.78700
C675        C  0.54528434  0.80684973  0.69726982     0.83200
O676        O  0.44100287  0.67629719  0.82381874    -0.78800
C677        C  0.41813343  0.84260432  0.82056954     0.83300
C678        C  0.57318706  0.81925191  0.85929491     0.83700
O679        O  0.54183150  0.79981256  0.87917054    -0.81300
O680        O  0.22347245  0.98434037  0.17485598    -0.78800
C681        C  0.31419913  0.09100084  0.16289274     0.82300
O682        O  0.37939853  0.95907314  0.21255263    -0.79900
O683        O  0.31640862  0.08433965  0.30897730    -0.81400
O684        O  0.20809865  0.01431791  0.30853777    -0.81200
O685        O  0.20980285  0.94218823  0.23310604    -0.79800
Zn686      Zn  0.28609963  0.99917204  0.18503427     1.55700
O687        O  0.21609993  0.07473546  0.26840847    -0.81200
Cd688      Cd  0.24965044  0.97146801  0.27831110     1.59700
Cd689      Cd  0.35101547  0.99216154  0.26446868     1.59600
O690        O  0.28100233  0.92956160  0.32364508    -0.81200
O691        O  0.29237233  0.00599099  0.24558396    -1.91700
Cd692      Cd  0.28137323  0.06750052  0.25451419     1.59900
O693        O  0.35087402  0.94827741  0.31522267    -0.81100
O694        O  0.30435332  0.10433917  0.20118297    -0.79800
C695        C  0.36112296  0.93972240  0.18019797     0.82700
C696        C  0.20051628  0.95578316  0.19475743     0.82400
O697        O  0.30806293  0.05156359  0.15163611    -0.78700
C698        C  0.19566697  0.05234655  0.29698996     0.83200
O699        O  0.32319198  0.94962775  0.16656928    -0.78800
C700        C  0.32142646  0.92617949  0.33432730     0.83300
C701        C  0.35739220  0.07860392  0.31200772     0.83700
O702        O  0.37756996  0.04877431  0.29067299    -0.81300
O703        O  0.15172038  0.81638213  0.95471302    -0.78800
C704        C  0.19657300  0.70842224  0.04783581     0.82300
O705        O  0.21282001  0.88640631  0.04584851    -0.79900
O706        O  0.32598381  0.78791599  0.07397796    -0.81400
O707        O  0.27199178  0.72607302  0.92640648    -0.81200
O708        O  0.19952815  0.81257645  0.90031523    -0.79800
Zn709      Zn  0.18665985  0.79375992  0.00549482     1.55700
O710        O  0.30991126  0.71586635  0.98815676    -0.81200
Cd711      Cd  0.25477160  0.79058352  0.93531019     1.59700
Cd712      Cd  0.26562397  0.85919204  0.01240462     1.59600
O713        O  0.30697230  0.82792646  0.91690995    -0.81200
O714        O  0.24728439  0.80060916  0.99746282    -1.91700
Cd715      Cd  0.28029973  0.75741842  0.03154160     1.59900
O716        O  0.29175044  0.88765878  0.95612722    -0.81100
O717        O  0.23502020  0.71774578  0.06118849    -0.79800
C718        C  0.18075422  0.86772429  0.06541352     0.82700
C719        C  0.16168237  0.82251641  0.91493678     0.82400
O720        O  0.17665713  0.73107056  0.01903366    -0.78700
C721        C  0.29943511  0.70457240  0.94941427     0.83200
O722        O  0.16797880  0.82956133  0.05579032    -0.78800
C723        C  0.31155217  0.86835689  0.92467503     0.83300
C724        C  0.33612940  0.82828753  0.07832169     0.83700
O725        O  0.31651892  0.85795828  0.05678725    -0.81300
C726        C  0.33669445  0.93846668  0.82680674     0.86200
C727        C  0.37050493  0.96672890  0.85096311    -0.54000
C728        C  0.39510870  0.94350875  0.88015133     0.09100
C729        C  0.38368069  0.89447976  0.88203217     0.20100
C730        C  0.36315498  0.90165400  0.80522255    -0.54700
C731        C  0.38818269  0.87845849  0.83403143     0.09200
C732        C  0.31027757  0.91673766  0.86275968    -0.54300
C733        C  0.33429104  0.89407208  0.89171441     0.09800
H734        H  0.37297349  0.00185242  0.84733021     0.14300
H735        H  0.40326178  0.87577534  0.90619146     0.00100
H736        H  0.36241183  0.89493099  0.77040825     0.14600
H737        H  0.27477531  0.91828093  0.86468160     0.14400
C738        C  0.67067403  0.84254363  0.93089916     0.86200
C739        C  0.69382934  0.86811515  0.89469623    -0.54000
C740        C  0.66665180  0.89343002  0.87041395     0.09100
C741        C  0.61798055  0.89073883  0.88500706     0.20100
C742        C  0.64636040  0.87682733  0.95848777    -0.54700
C743        C  0.61803425  0.90205458  0.93460633     0.09200
C744        C  0.63475744  0.81690974  0.90830950    -0.54300
C745        C  0.60696561  0.84149699  0.88462027     0.09800
H746        H  0.72889924  0.86701476  0.88929852     0.14300
H747        H  0.59543618  0.91082909  0.86489799     0.00100
H748        H  0.64958754  0.87932777  0.99371647     0.14600
H749        H  0.63185898  0.78157729  0.91029171     0.14400
C750        C  0.42835062  0.83745213  0.16442337     0.86200
C751        C  0.39356606  0.81452582  0.13609381    -0.54000
C752        C  0.37159284  0.84223672  0.10876258     0.09100
C753        C  0.38687524  0.89032369  0.11273824     0.20100
C754        C  0.45873975  0.86114596  0.13189555    -0.54700
C755        C  0.43687889  0.88939728  0.10485862     0.09200
C756        C  0.40407714  0.87381465  0.18789629    -0.54300
C757        C  0.38318901  0.90189920  0.16134673     0.09800
H758        H  0.38670183  0.77984401  0.13779678     0.14300
H759        H  0.36869155  0.91341527  0.09150811     0.00100
H760        H  0.49405692  0.85772867  0.13200326     0.14600
H761        H  0.40397594  0.87759504  0.22327235     0.14400
C762        C  0.32847648  0.17274583  0.06953457     0.86200
C763        C  0.35077393  0.13730312  0.04174027    -0.54000
C764        C  0.37835409  0.11121235  0.06531786     0.09100
C765        C  0.38018285  0.12249650  0.11445773     0.20100
C766        C  0.30506025  0.14821094  0.10640998    -0.54700
C767        C  0.33188490  0.12165685  0.12999580     0.09200
C768        C  0.36598255  0.19688004  0.09136760    -0.54300
C769        C  0.39336276  0.17105043  0.11446638     0.09800
H770        H  0.34780929  0.13527113  0.00645499     0.14300
H771        H  0.40245697  0.10117132  0.13360324     0.00100
H772        H  0.27013924  0.15043064  0.11233947     0.14600
H773        H  0.37063527  0.23196255  0.08862082     0.14400
C774        C  0.57263994  0.17607344  0.83320651     0.86200
C775        C  0.54238838  0.15412351  0.86688578    -0.54000
C776        C  0.56404222  0.12578823  0.89387513     0.09100
C777        C  0.61351636  0.12259526  0.88482987     0.20100
C778        C  0.60873425  0.19825473  0.86026854    -0.54700
C779        C  0.63020555  0.17037170  0.88775820     0.09200
C780        C  0.59503262  0.13860731  0.80969871    -0.54300
C781        C  0.61578686  0.11031795  0.83612082     0.09800
H782        H  0.50717190  0.15841876  0.86748252     0.14300
H783        H  0.63079798  0.09913520  0.90645037     0.00100
H784        H  0.61624546  0.23278580  0.85825778     0.14600
H785        H  0.59452870  0.13465377  0.77434511     0.14400
C786        C  0.66593369  0.07595117  0.17192520     0.86200
C787        C  0.63900975  0.11119473  0.19526201    -0.54000
C788        C  0.61345244  0.13521774  0.16789599     0.09100
C789        C  0.61720758  0.12142724  0.11928961     0.20100
C790        C  0.63253884  0.04798164  0.14654620    -0.54700
C791        C  0.60700647  0.07181582  0.11838997     0.09200
C792        C  0.69144588  0.09975489  0.13671544    -0.54300
C793        C  0.66648345  0.12313593  0.10903673     0.09800
H794        H  0.63974649  0.11638189  0.23035105     0.14300
H795        H  0.59701520  0.14146780  0.09677345     0.00100
H796        H  0.63068420  0.01272715  0.14914411     0.14600
H797        H  0.72690528  0.09855220  0.13398940     0.14400
O798        O  0.46209691  0.97653706  0.90177639    -0.78800
C799        C  0.54184317  0.09502364  0.92334532     0.82300
O800        O  0.58231312  0.93499745  0.99660041    -0.79900
O801        O  0.55334042  0.07812525  0.06318405    -0.81400
O802        O  0.40017512  0.04469177  0.03208417    -0.81200
O803        O  0.40931646  0.96877375  0.95127231    -0.79800
Zn804      Zn  0.51409481  0.99978597  0.93670247     1.55700
O805        O  0.44975237  0.09746020  0.03957321    -0.81200
Cd806      Cd  0.43720130  0.99332149  0.00739629     1.59700
Cd807      Cd  0.53867584  0.97044725  0.03708417     1.59600
O808        O  0.43224045  0.94440984  0.05204143    -0.81200
O809        O  0.50014495  0.00829670  0.99852902    -1.91700
Cd810      Cd  0.50728468  0.07140809  0.01440575     1.59900
O811        O  0.49948216  0.92598345  0.07330113    -0.81100
O812        O  0.53009483  0.10752414  0.96129872    -0.79800
C813        C  0.58614057  0.93272941  0.95493042     0.82700
C814        C  0.42373215  0.96444490  0.91256560     0.82400
O815        O  0.53722627  0.05575272  0.91055661    -0.78700
C816        C  0.41103622  0.08287289  0.04427371     0.83200
O817        O  0.56205185  0.95531264  0.92967884    -0.78800
C818        C  0.45789288  0.92115821  0.07488361     0.83300
C819        C  0.57638591  0.05214745  0.08606636     0.83700
O820        O  0.57449807  0.01067294  0.08083362    -0.81300
O821        O  0.97747616  0.82853326  0.27651482    -0.78800
C822        C  0.08225150  0.84203225  0.18381572     0.82300
O823        O  0.95272499  0.79226818  0.12016410    -0.79900
O824        O  0.07776868  0.69658592  0.18363703    -0.81400
O825        O  0.00754854  0.69453538  0.28995872    -0.81200
O826        O  0.93517900  0.77072588  0.29132806    -0.79800
Zn827      Zn  0.99121785  0.81874028  0.21355676     1.55700
O828        O  0.06606451  0.73771261  0.28331835    -0.81200
Cd829      Cd  0.96360336  0.72563991  0.25008460     1.59700
Cd830      Cd  0.98473155  0.73971538  0.14859360     1.59600
O831        O  0.92091406  0.68103955  0.21856641    -0.81200
O832        O  0.99799814  0.75847831  0.20712392    -1.91700
Cd833      Cd  0.05970275  0.75081980  0.21803044     1.59900
O834        O  0.94033234  0.68934140  0.14883312    -0.81100
O835        O  0.09612885  0.80418057  0.19443690    -0.79800
C836        C  0.93295526  0.82435097  0.13846316     0.82700
C837        C  0.94919131  0.80898519  0.30017008     0.82400
O838        O  0.04265065  0.85283943  0.19009905    -0.78700
C839        C  0.04500630  0.70756023  0.30283253     0.83200
O840        O  0.94154561  0.83702586  0.17699279    -0.78800
C841        C  0.91769716  0.67049992  0.17810527     0.83300
C842        C  0.07220831  0.69341728  0.14266714     0.83700
O843        O  0.04188000  0.71399310  0.12238790    -0.81300
O844        O  0.82206372  0.28345516  0.98218567    -0.78800
C845        C  0.83524946  0.19223242  0.08438069     0.82300
O846        O  0.78624980  0.12839187  0.95358158    -0.79900
O847        O  0.69111585  0.18941270  0.08131138    -0.81400
O848        O  0.68618471  0.29779476  0.00711802    -0.81200
O849        O  0.76512381  0.29804561  0.93847626    -0.79800
Zn850      Zn  0.81152562  0.22042353  0.99344041     1.55700
O851        O  0.72690653  0.29079791  0.06749205    -0.81200
Cd852      Cd  0.71892258  0.25714020  0.96518102     1.59700
Cd853      Cd  0.73336850  0.15561187  0.98686534     1.59600
O854        O  0.67590846  0.22499018  0.92142095    -0.81200
O855        O  0.75109236  0.21437439  0.00043008    -1.91700
Cd856      Cd  0.74342383  0.22604976  0.06202134     1.59900
O857        O  0.68281600  0.15556537  0.94232993    -0.81100
O858        O  0.79810992  0.20501364  0.09859372    -0.79800
C859        C  0.81768070  0.14736641  0.93328796     0.82700
C860        C  0.80309702  0.30700183  0.95345868     0.82400
O861        O  0.84517524  0.19585629  0.04428564    -0.78700
C862        C  0.69777830  0.31059054  0.04503509     0.83200
O863        O  0.83005465  0.18578278  0.94240918    -0.78800
C864        C  0.66494475  0.18466612  0.91865072     0.83300
C865        C  0.68798185  0.14857665  0.07514770     0.83700
O866        O  0.70818801  0.12877355  0.04425465    -0.81300
O867        O  0.27685781  0.02873880  0.67515955    -0.78800
C868        C  0.18629141  0.92212554  0.66351043     0.82300
O869        O  0.12092400  0.05390899  0.71385170    -0.79900
O870        O  0.18218674  0.92641441  0.80808805    -0.81400
O871        O  0.29259888  0.99963023  0.80924840    -0.81200
O872        O  0.29015484  0.07125959  0.73310465    -0.79800
Zn873      Zn  0.21416238  0.01370566  0.68607737     1.55700
O874        O  0.28390678  0.93836161  0.77048131    -0.81200
Cd875      Cd  0.25067393  0.04179984  0.77855208     1.59700
Cd876      Cd  0.14906346  0.02028930  0.76558248     1.59600
O877        O  0.21952769  0.08445283  0.82302057    -0.81200
O878        O  0.20779325  0.00654376  0.74663802    -1.91700
Cd879      Cd  0.21884534  0.94497559  0.75529684     1.59900
O880        O  0.14978431  0.06444744  0.81634488    -0.81100
O881        O  0.19715065  0.90848454  0.70140570    -0.79800
C882        C  0.13929139  0.07322354  0.68154459     0.82700
C883        C  0.29953454  0.05771968  0.69479610     0.82400
O884        O  0.19155188  0.96176332  0.65256980    -0.78700
C885        C  0.30470209  0.96131054  0.79838891     0.83200
O886        O  0.17720020  0.06326882  0.66800301    -0.78800
C887        C  0.17927964  0.08755810  0.83426798     0.83300
C888        C  0.14122662  0.93256410  0.81097266     0.83700
O889        O  0.12153738  0.96332419  0.79050455    -0.81300
C890        C  0.17136806  0.17389677  0.92567148     0.86200
C891        C  0.14863107  0.14108926  0.95636866    -0.54000
C892        C  0.12012320  0.11403731  0.93506789     0.09100
C893        C  0.11755341  0.12206724  0.88543630     0.20100
C894        C  0.19362693  0.14592264  0.89031913    -0.54700
C895        C  0.16548473  0.11841161  0.86914507     0.09200
C896        C  0.13423182  0.19724084  0.90231583    -0.54300
C897        C  0.10577084  0.17065732  0.88196592     0.09800
H898        H  0.15262456  0.14109691  0.99160754     0.14300
H899        H  0.09396023  0.10041795  0.86842957     0.00100
H900        H  0.22824295  0.14765649  0.88280455     0.14600
H901        H  0.13042255  0.23256098  0.90217368     0.14400
C902        C  0.16616867  0.93327572  0.16881385     0.86200
C903        C  0.13143794  0.96274367  0.14745253    -0.54000
C904        C  0.10387364  0.94069812  0.12002709     0.09100
C905        C  0.11329524  0.89112242  0.11746956     0.20100
C906        C  0.14061557  0.89718829  0.19226962    -0.54700
C907        C  0.11267365  0.87502059  0.16572716     0.09200
C908        C  0.18881592  0.91083237  0.13091229    -0.54300
C909        C  0.16181841  0.88941733  0.10356760     0.09800
H910        H  0.13108328  0.99800045  0.15077478     0.14300
H911        H  0.09096092  0.87309367  0.09530267     0.00100
H912        H  0.14342595  0.89041055  0.22698502     0.14600
H913        H  0.22402571  0.91197585  0.12587154     0.14400
C914        C  0.93052837  0.18010413  0.16419665     0.86200
C915        C  0.95780708  0.15761532  0.12844792    -0.54000
C916        C  0.93407320  0.12923926  0.10339457     0.09100
C917        C  0.88509051  0.12693060  0.11618957     0.20100
C918        C  0.89268864  0.20249245  0.14015441    -0.54700
C919        C  0.86880404  0.17500488  0.11473599     0.09200
C920        C  0.90992599  0.14294020  0.18975227    -0.54300
C921        C  0.88638415  0.11499238  0.16527740     0.09800
H922        H  0.99297749  0.16116419  0.12546241     0.14300
H923        H  0.86553888  0.10407920  0.09594919     0.00100
H924        H  0.88638764  0.23732598  0.14173516     0.14600
H925        H  0.91268243  0.13961930  0.22506579     0.14400
C926        C  0.83154445  0.84218289  0.07051310     0.86200
C927        C  0.80884355  0.86994476  0.10590351    -0.54000
C928        C  0.83677138  0.89668250  0.12824569     0.09100
C929        C  0.88487469  0.89276161  0.11272102     0.20100
C930        C  0.85536019  0.87511436  0.04065259    -0.54700
C931        C  0.88379333  0.90167402  0.06288036     0.09200
C932        C  0.86790317  0.81810502  0.09420070    -0.54300
C933        C  0.89608277  0.84402895  0.11560189     0.09800
H934        H  0.77409491  0.86837034  0.11282029     0.14300
H935        H  0.90817750  0.91347917  0.13118170     0.00100
H936        H  0.85163298  0.87583850  0.00539107     0.14600
H937        H  0.87134051  0.78274321  0.09394578     0.14400
C938        C  0.06783744  0.83654117  0.83362091     0.86200
C939        C  0.10315678  0.81293750  0.86013031    -0.54000
C940        C  0.12768019  0.83994787  0.88533657     0.09100
C941        C  0.11417002  0.88863853  0.88187997     0.20100
C942        C  0.04024074  0.86197713  0.86724153    -0.54700
C943        C  0.06448803  0.88995386  0.89249122     0.09200
C944        C  0.09163834  0.87156828  0.80786379    -0.54300
C945        C  0.11554034  0.89895323  0.83261741     0.09800
H946        H  0.10813358  0.77786361  0.85932065     0.14300
H947        H  0.13457285  0.91089093  0.90193300     0.00100
H948        H  0.00491061  0.85963011  0.86935505     0.14600
H949        H  0.09013163  0.87430802  0.77243102     0.14400
C950        C  0.83300352  0.07976142  0.83129894     0.86200
C951        C  0.85871865  0.11530190  0.80710253    -0.54000
C952        C  0.88624262  0.13838371  0.83318466     0.09100
C953        C  0.88524781  0.12367256  0.88179855     0.20100
C954        C  0.86767905  0.05099693  0.85397914    -0.54700
C955        C  0.89497720  0.07393104  0.88120035     0.09200
C956        C  0.80991532  0.10311185  0.86838168    -0.54300
C957        C  0.83663444  0.12544871  0.89528836     0.09800
H958        H  0.85624474  0.12113588  0.77219007     0.14300
H959        H  0.90701560  0.14291951  0.90347287     0.00100
H960        H  0.86860616  0.01572992  0.85095136     0.14600
H961        H  0.77470781  0.10172729  0.87333915     0.14400
O962        O  0.96807989  0.10726620  0.03661532    -0.78800
C963        C  0.08890817  0.08505402  0.95748568     0.82300
O964        O  0.92722147  0.01153247  0.91721688    -0.79900
O965        O  0.07118447  0.94548033  0.94568085    -0.81400
O966        O  0.03804153  0.97674137  0.09917201    -0.81200
O967        O  0.96007258  0.05801170  0.08956356    -0.79800
Zn968      Zn  0.99298591  0.07211942  0.98504755     1.55700
O969        O  0.09025975  0.96792647  0.04905641    -0.81200
Cd970      Cd  0.98603131  0.00165596  0.06241200     1.59700
Cd971      Cd  0.96326440  0.97151434  0.96102115     1.59600
O972        O  0.93778815  0.95586041  0.06783594    -0.81200
O973        O  0.00121946  0.01029656  0.99931026    -1.91700
Cd974      Cd  0.06446409  0.99410568  0.99181381     1.59900
O975        O  0.91957567  0.93468479  0.00056721    -0.81100
O976        O  0.10100692  0.04692056  0.96898235    -0.79800
C977        C  0.92574810  0.05311279  0.91279997     0.82700
C978        C  0.95532127  0.09659553  0.07485463     0.82400
O979        O  0.04964922  0.09825647  0.96228290    -0.78700
C980        C  0.07586263  0.96336999  0.08787894     0.83200
O981        O  0.94902102  0.07816407  0.93641573    -0.78800
C982        C  0.91495126  0.93263185  0.04215110     0.83300
C983        C  0.04503391  0.92250470  0.92300323     0.83700
O984        O  0.00349427  0.92778010  0.92518412    -0.81300
O985        O  0.17832681  0.23273728  0.97475499    -0.78800
C986        C  0.16545996  0.32349671  0.08134594     0.82300
O987        O  0.21707035  0.38815970  0.94798807    -0.79900
O988        O  0.31073506  0.32648525  0.07625217    -0.81400
O989        O  0.31329223  0.21694636  0.00738696    -0.81200
O990        O  0.23711986  0.21622327  0.93426324    -0.79800
Zn991      Zn  0.18866945  0.29538514  0.98939621     1.55700
O992        O  0.27264517  0.22631115  0.06735635    -0.81200
Cd993      Cd  0.28253420  0.25720164  0.96309856     1.59700
Cd994      Cd  0.26854492  0.35959874  0.98226958     1.59600
O995        O  0.32830961  0.28804775  0.92093424    -0.81200
O996        O  0.24938200  0.30104142  0.99654145    -1.91700
Cd997      Cd  0.25734671  0.29082802  0.05856237     1.59900
O998        O  0.31996084  0.35808944  0.93889520    -0.81100
O999        O  0.20358215  0.31338936  0.09501891    -0.79800
C1000       C  0.18386557  0.37048464  0.92950578     0.82700
C1001       C  0.19823810  0.20830001  0.94737927     0.82400
O1002       O  0.15464180  0.31760785  0.04166938    -0.78700
C1003       C  0.30151814  0.20547011  0.04570260     0.83200
O1004       O  0.17007581  0.33280058  0.93984364    -0.78800
C1005       C  0.33917278  0.32833353  0.91721220     0.83300
C1006       C  0.31386207  0.36729688  0.07020913     0.83700
O1007       O  0.29354017  0.38713876  0.03940423    -0.81300
O1008       O  0.72659772  0.48465626  0.67677141    -0.78800
C1009       C  0.81717896  0.58945233  0.66529996     0.82300
O1010       O  0.88187939  0.45665843  0.71801176    -0.79900
O1011       O  0.81857698  0.58535301  0.81128758    -0.81400
O1012       O  0.70924905  0.51368773  0.81265307    -0.81200
O1013       O  0.70988615  0.44319622  0.73467271    -0.79800
Zn1014     Zn  0.78936531  0.49806804  0.68888156     1.55700
O1015       O  0.71839006  0.57411252  0.77267206    -0.81200
Cd1016     Cd  0.75033269  0.47070802  0.78135740     1.59700
Cd1017     Cd  0.85286318  0.49108827  0.76930439     1.59600
O1018       O  0.78126741  0.42759432  0.82635640    -0.81200
O1019       O  0.79433159  0.50522833  0.74962204    -1.91700
Cd1020     Cd  0.78339692  0.56703896  0.75738922     1.59900
O1021       O  0.85113215  0.44726595  0.81980203    -0.81100
O1022       O  0.80556453  0.60344025  0.70291369    -0.79800
C1023       C  0.86404663  0.43792349  0.68498979     0.82700
C1024       C  0.70207953  0.45693245  0.69596137     0.82400
O1025       O  0.81277938  0.54953997  0.65510388    -0.78700
C1026       C  0.69758442  0.55202192  0.80128113     0.83200
O1027       O  0.82627259  0.44817086  0.67116757    -0.78800
C1028       C  0.82154727  0.42449836  0.83784178     0.83300
C1029       C  0.85926555  0.57872109  0.81600789     0.83700
O1030       O  0.87947059  0.54775889  0.79629486    -0.81300
O1031       O  0.95640517  0.16056111  0.80933498    -0.78800
C1032       C  0.04990174  0.20219249  0.69845782     0.82300
O1033       O  0.04851436  0.22182539  0.87801984    -0.79900
O1034       O  0.07849788  0.33097845  0.77929764    -0.81400
O1035       O  0.93156561  0.28043302  0.71609192    -0.81200
O1036       O  0.90257936  0.20873989  0.80286041    -0.79800
Zn1037     Zn  0.00796433  0.19395985  0.78531471     1.55700
O1038       O  0.99356981  0.31809800  0.70690416    -0.81200
Cd1039     Cd  0.93884534  0.26305139  0.78062553     1.59700
Cd1040     Cd  0.01478544  0.27326705  0.84970017     1.59600
O1041       O  0.92067656  0.31560363  0.81767478    -0.81200
O1042       O  0.00073708  0.25450338  0.79099500    -1.91700
Cd1043     Cd  0.03593354  0.28632439  0.74782289     1.59900
O1044       O  0.95824389  0.29810637  0.87787421    -0.81100
O1045       O  0.06392261  0.24051057  0.70707655    -0.79800
C1046       C  0.06796505  0.18954629  0.85980406     0.82700
C1047       C  0.91660085  0.17120694  0.81458606     0.82400
O1048       O  0.02169688  0.18281756  0.72235992    -0.78700
C1049       C  0.95475689  0.30826309  0.69539552     0.83200
O1050       O  0.05820030  0.17605620  0.82182548    -0.78800
C1051       C  0.92737035  0.31867143  0.85849761     0.83300
C1052       C  0.08111459  0.34255093  0.81952600     0.83700
O1053       O  0.05823351  0.32435928  0.84898263    -0.81300
C1054       C  0.83053829  0.34018780  0.93106336     0.86200
C1055       C  0.85574998  0.37266321  0.96023992    -0.54000
C1056       C  0.88429723  0.39846559  0.93727406     0.09100
C1057       C  0.88410871  0.38915978  0.88748509     0.20100
C1058       C  0.80766919  0.36824745  0.89610426    -0.54700
C1059       C  0.83566208  0.39418728  0.87312761     0.09200
C1060       C  0.86573281  0.31500376  0.90681288    -0.54300
C1061       C  0.89385331  0.34006501  0.88449400     0.09800
H1062       H  0.85247647  0.37392607  0.99552798     0.14300
H1063       H  0.90747234  0.40919196  0.86837054     0.00100
H1064       H  0.77271975  0.36759641  0.89004768     0.14600
H1065       H  0.86804898  0.27955098  0.90676960     0.14400
C1066       C  0.16389063  0.43691818  0.82689965     0.86200
C1067       C  0.13699770  0.40073028  0.80497848    -0.54000
C1068       C  0.11087956  0.37833442  0.83335110     0.09100
C1069       C  0.11457006  0.39461826  0.88133207     0.20100
C1070       C  0.13030776  0.46625643  0.85025932    -0.54700
C1071       C  0.10456850  0.44391381  0.87908364     0.09200
C1072       C  0.18892710  0.41472754  0.86367933    -0.54300
C1073       C  0.16361178  0.39299410  0.89241740     0.09800
H1074       H  0.13851813  0.39359948  0.77027002     0.14300
H1075       H  0.09386790  0.37673887  0.90512956     0.00100
H1076       H  0.12889425  0.50144136  0.84654246     0.14600
H1077       H  0.22432775  0.41619748  0.86684228     0.14400
C1078       C  0.92934701  0.67768353  0.83331703     0.86200
C1079       C  0.89309351  0.70143124  0.85857445    -0.54000
C1080       C  0.87016116  0.67509294  0.88599887     0.09100
C1081       C  0.88557802  0.62678124  0.88532571     0.20100
C1082       C  0.95811893  0.65569619  0.86847031    -0.54700
C1083       C  0.93506773  0.62864766  0.89581574     0.09200
C1084       C  0.90673325  0.64023659  0.81023691    -0.54300
C1085       C  0.88441253  0.61335055  0.83668587     0.09800
H1086       H  0.88676170  0.73619750  0.85597665     0.14300
H1087       H  0.86663205  0.60485596  0.90710475     0.00100
H1088       H  0.99346643  0.65848514  0.86937438     0.14600
H1089       H  0.90755839  0.63561901  0.77495190     0.14400
C1090       C  0.07448908  0.33841561  0.16607058     0.86200
C1091       C  0.04518829  0.36169711  0.13226754    -0.54000
C1092       C  0.06783922  0.38926324  0.10517851     0.09100
C1093       C  0.11776535  0.38965019  0.11411084     0.20100
C1094       C  0.10966732  0.31460388  0.13941778    -0.54700
C1095       C  0.13240437  0.34117015  0.11201852     0.09200
C1096       C  0.09835492  0.37502541  0.18941441    -0.54300
C1097       C  0.12020990  0.40238009  0.16279499     0.09800
H1098       H  0.00983571  0.35877466  0.13178204     0.14300
H1099       H  0.13678049  0.41161335  0.09245136     0.00100
H1100       H  0.11564713  0.27973645  0.14137000     0.14600
H1101       H  0.09734805  0.37956625  0.22467777     0.14400
C1102       C  0.83253548  0.57810222  0.16801951     0.86200
C1103       C  0.86589077  0.54807096  0.14485650    -0.54000
C1104       C  0.89308934  0.57008758  0.11678395     0.09100
C1105       C  0.88432493  0.61981573  0.11545716     0.20100
C1106       C  0.86008968  0.61328777  0.19107925    -0.54700
C1107       C  0.88747252  0.63529697  0.16361356     0.09200
C1108       C  0.80913355  0.60169831  0.13113600    -0.54300
C1109       C  0.83571121  0.62283804  0.10332237     0.09800
H1110       H  0.86639284  0.51287173  0.14866116     0.14300
H1111       H  0.90560954  0.63808504  0.09252354     0.00100
H1112       H  0.85804415  0.62022886  0.22578860     0.14600
H1113       H  0.77377302  0.60154226  0.12706776     0.14400
C1114       C  0.17038706  0.67497765  0.07132986     0.86200
C1115       C  0.19432194  0.64914866  0.10703264    -0.54000
C1116       C  0.16769182  0.62230847  0.13038809     0.09100
C1117       C  0.11903995  0.62407234  0.11582997     0.20100
C1118       C  0.14717764  0.64058831  0.04293944    -0.54700
C1119       C  0.11971353  0.61409274  0.06624434     0.09200
C1120       C  0.13381651  0.69884940  0.09475761    -0.54300
C1121       C  0.10682278  0.67282681  0.11756769     0.09800
H1122       H  0.22928350  0.65112140  0.11283164     0.14300
H1123       H  0.09690863  0.60270917  0.13500851     0.00100
H1124       H  0.14991456  0.63927679  0.00760531     0.14600
H1125       H  0.12975456  0.73414159  0.09388092     0.14400
O1126       O  0.04855274  0.59712739  0.04039791    -0.78800
C1127       C  0.95638709  0.59600705  0.92453613     0.82300
O1128       O  0.92671409  0.50759571  0.08217207    -0.79900
O1129       O  0.93731716  0.45389350  0.93143349    -0.81400
O1130       O  0.09108260  0.47069455  0.94997514    -0.81200
O1131       O  0.10063565  0.54692853  0.03215780    -0.79800
Zn1132     Zn  0.99263894  0.57054551  0.01509976     1.55700
O1133       O  0.03774152  0.47703354  0.90056557    -0.81200
Cd1134     Cd  0.06465392  0.49447119  0.00763347     1.59700
Cd1135     Cd  0.96404137  0.46893829  0.03840288     1.59600
O1136       O  0.07212752  0.44490059  0.05222081    -0.81200
O1137       O  0.00109296  0.50901115  0.00030265    -1.91700
Cd1138     Cd  0.98535216  0.50045195  0.93726510     1.59900
O1139       O  0.00522304  0.42576622  0.07387140    -0.81100
O1140       O  0.96034643  0.55724298  0.91008548    -0.79800
C1141       C  0.92433401  0.54916216  0.08593674     0.82700
C1142       C  0.08805298  0.58445394  0.04495523     0.82400
O1143       O  0.96889180  0.60647179  0.96298280    -0.78700
C1144       C  0.07632968  0.46564376  0.91137021     0.83200
O1145       O  0.94741914  0.57442069  0.06236361    -0.78800
C1146       C  0.04687632  0.42125599  0.07516029     0.83300
C1147       C  0.91554584  0.42983272  0.95734470     0.83700
O1148       O  0.92104223  0.43152910  0.99883069    -0.81300
O1149       O  0.54314238  0.85435574  0.30968974    -0.78800
C1150       C  0.45021349  0.81095473  0.19903519     0.82300
O1151       O  0.45138667  0.79183573  0.37980791    -0.79900
O1152       O  0.42336849  0.68208539  0.27957988    -0.81400
O1153       O  0.56956989  0.73658426  0.21607700    -0.81200
O1154       O  0.59737250  0.80664563  0.30323153    -0.79800
Zn1155     Zn  0.49150141  0.82034976  0.28658264     1.55700
O1156       O  0.50920526  0.69629846  0.20810934    -0.81200
Cd1157     Cd  0.56152914  0.75236772  0.28097118     1.59700
Cd1158     Cd  0.48541054  0.74078476  0.35064538     1.59600
O1159       O  0.57999262  0.69941391  0.31725501    -0.81200
O1160       O  0.49951840  0.75998204  0.29198208    -1.91700
Cd1161     Cd  0.46561630  0.72724150  0.24847539     1.59900
O1162       O  0.54203607  0.71492206  0.37781671    -0.81100
O1163       O  0.43708840  0.77222288  0.20713211    -0.79800
C1164       C  0.43202999  0.82441122  0.36195273     0.82700
C1165       C  0.58309705  0.84411754  0.31467436     0.82400
O1166       O  0.47729897  0.83101550  0.22368587    -0.78700
C1167       C  0.54733820  0.70775621  0.19580487     0.83200
O1168       O  0.44159986  0.83796881  0.32392163    -0.78800
C1169       C  0.57298407  0.69498125  0.35790656     0.83300
C1170       C  0.41991929  0.67103682  0.31988960     0.83700
O1171       O  0.44196380  0.68979405  0.34962389    -0.81300
O1172       O  0.52223580  0.18386281  0.77543080    -0.78800
C1173       C  0.41698174  0.17263212  0.68390861     0.82300
O1174       O  0.54883657  0.22135325  0.61976541    -0.79900
O1175       O  0.42348496  0.31734839  0.68262843    -0.81400
O1176       O  0.49606978  0.31858363  0.79089261    -0.81200
O1177       O  0.56578374  0.24083414  0.78993186    -0.79800
Zn1178     Zn  0.50885794  0.19434806  0.71245548     1.55700
O1179       O  0.43526458  0.27878995  0.78347929    -0.81200
Cd1180     Cd  0.53805380  0.28675806  0.74954564     1.59700
Cd1181     Cd  0.51608870  0.27344167  0.64812106     1.59600
O1182       O  0.58104121  0.33081948  0.71789736    -0.81200
O1183       O  0.50258680  0.25481857  0.70675620    -1.91700
Cd1184     Cd  0.44107821  0.26365768  0.71829833     1.59900
O1185       O  0.56031033  0.32396396  0.64836375    -0.81100
O1186       O  0.40358668  0.21029477  0.69584576    -0.79800
C1187       C  0.56841340  0.18915239  0.63806144     0.82700
C1188       C  0.55096780  0.20293878  0.79896041     0.82400
O1189       O  0.45673433  0.16154068  0.68867780    -0.78700
C1190       C  0.45794391  0.30748245  0.80350506     0.83200
O1191       O  0.55890007  0.17584013  0.67616326    -0.78800
C1192       C  0.58362610  0.34206029  0.67758654     0.83300
C1193       C  0.42877718  0.31972801  0.64156479     0.83700
O1194       O  0.45891834  0.29870740  0.62150326    -0.81300
O1195       O  0.68922273  0.96324144  0.84673400    -0.78800
C1196       C  0.79893174  0.05686740  0.80507646     0.82300
O1197       O  0.62028105  0.05351270  0.78427623    -0.79900
O1198       O  0.71997198  0.08455997  0.67506048    -0.81400
O1199       O  0.78355597  0.93800599  0.72732736    -0.81200
O1200       O  0.69654932  0.90885755  0.79947754    -0.79800
Zn1201     Zn  0.71307456  0.01401731  0.81262866     1.55700
O1202       O  0.79271280  0.99988730  0.68944694    -0.81200
Cd1203     Cd  0.71855812  0.94432635  0.74428252     1.59700
Cd1204     Cd  0.64891992  0.02003589  0.73235321     1.59600
O1205       O  0.68159243  0.92449935  0.69191003    -0.81200
O1206       O  0.70752805  0.00621198  0.75181513    -1.91700
Cd1207     Cd  0.75068438  0.04176285  0.72024163     1.59900
O1208       O  0.62133077  0.96318329  0.70665802    -0.81100
O1209       O  0.79010062  0.07030346  0.76653571    -0.79800
C1210       C  0.63822925  0.07293068  0.81682703     0.82700
C1211       C  0.68444001  0.92334701  0.83675984     0.82400
O1212       O  0.77564647  0.02839831  0.82469013    -0.78700
C1213       C  0.80438400  0.96124837  0.69956063     0.83200
O1214       O  0.67633553  0.06365453  0.83027062    -0.78800
C1215       C  0.64091426  0.93162074  0.68735341     0.83300
C1216       C  0.67977651  0.08729513  0.66337097     0.83700
O1217       O  0.65033762  0.06415809  0.68138342    -0.81300
C1218       C  0.33364931  0.08071637  0.66877251     0.86200
C1219       C  0.36929996  0.05189147  0.64797904    -0.54000
C1220       C  0.39669741  0.07440427  0.62070899     0.09100
C1221       C  0.38607469  0.12366328  0.61762600     0.20100
C1222       C  0.35824955  0.11761947  0.69214747    -0.54700
C1223       C  0.38602251  0.14013289  0.66570527     0.09200
C1224       C  0.31086197  0.10231557  0.63041655    -0.54300
C1225       C  0.33763196  0.12416235  0.60320561     0.09800
H1226       H  0.37036704  0.01666985  0.65149571     0.14300
H1227       H  0.40820087  0.14202803  0.59554051     0.00100
H1228       H  0.35533139  0.12433856  0.72685679     0.14600
H1229       H  0.27572949  0.10043094  0.62506727     0.14400
C1230       C  0.56873368  0.83449657  0.66499529     0.86200
C1231       C  0.54119812  0.85840865  0.63025073    -0.54000
C1232       C  0.56524525  0.88614007  0.60471489     0.09100
C1233       C  0.61457400  0.88670826  0.61627842     0.20100
C1234       C  0.60503288  0.81115812  0.63960847    -0.54700
C1235       C  0.62913538  0.83820576  0.61394611     0.09200
C1236       C  0.59136828  0.87060708  0.69033076    -0.54300
C1237       C  0.61511214  0.89802886  0.66546788     0.09800
H1238       H  0.50588082  0.85590901  0.62799453     0.14300
H1239       H  0.63434459  0.90913665  0.59578716     0.00100
H1240       H  0.61055056  0.77618227  0.64100337     0.14600
H1241       H  0.58952053  0.87379930  0.72571135     0.14400
C1242       C  0.67059262  0.17279002  0.57070649     0.86200
C1243       C  0.69349729  0.14484102  0.60586592    -0.54000
C1244       C  0.66575626  0.11768578  0.62792348     0.09100
C1245       C  0.61761000  0.12150092  0.61247835     0.20100
C1246       C  0.64691138  0.13995630  0.54057247    -0.54700
C1247       C  0.61863374  0.11307975  0.56259352     0.09200
C1248       C  0.63405485  0.19642178  0.59458155    -0.54300
C1249       C  0.60600274  0.17009390  0.61573907     0.09800
H1250       H  0.72824900  0.14652993  0.61277543     0.14300
H1251       H  0.59446572  0.10048527  0.63078075     0.00100
H1252       H  0.65046895  0.13964335  0.50529168     0.14600
H1253       H  0.63026819  0.23174330  0.59440313     0.14400
C1254       C  0.32960972  0.84353922  0.42891863     0.86200
C1255       C  0.35275212  0.87723605  0.45815119    -0.54000
C1256       C  0.38139479  0.90299861  0.43568867     0.09100
C1257       C  0.38356736  0.89307779  0.38632572     0.20100
C1258       C  0.30735874  0.87021897  0.39264666    -0.54700
C1259       C  0.33550548  0.89648463  0.37013046     0.09200
C1260       C  0.36649761  0.81875838  0.40664132    -0.54300
C1261       C  0.39494029  0.84423495  0.38471352     0.09800
H1262       H  0.34894034  0.87880470  0.49337535     0.14300
H1263       H  0.40718260  0.91389648  0.36835273     0.00100
H1264       H  0.27262336  0.86851593  0.38559431     0.14600
H1265       H  0.36991902  0.78345663  0.40814328     0.14400
C1266       C  0.66775101  0.93464312  0.33112255     0.86200
C1267       C  0.64131617  0.89970879  0.30682873    -0.54000
C1268       C  0.61333818  0.87715247  0.33291404     0.09100
C1269       C  0.61462048  0.89165937  0.38152034     0.20100
C1270       C  0.63365133  0.96403903  0.35389662    -0.54700
C1271       C  0.60593119  0.94158663  0.38108586     0.09200
C1272       C  0.69032351  0.91063656  0.36818582    -0.54300
C1273       C  0.66312480  0.88872812  0.39499944     0.09800
H1274       H  0.64388671  0.89369483  0.27196021     0.14300
H1275       H  0.59248248  0.87275198  0.40310525     0.00100
H1276       H  0.63343672  0.99932656  0.35097950     0.14600
H1277       H  0.72554535  0.91130258  0.37322541     0.14400
C1278       C  0.42917427  0.17594998  0.33118387     0.86200
C1279       C  0.39389316  0.19975438  0.35765094    -0.54000
C1280       C  0.37053248  0.17313159  0.38433808     0.09100
C1281       C  0.38485577  0.12455197  0.38202462     0.20100
C1282       C  0.45797513  0.15208909  0.36501821    -0.54700
C1283       C  0.43482088  0.12446485  0.39167557     0.09200
C1284       C  0.40532761  0.13989896  0.30713569    -0.54300
C1285       C  0.38264820  0.11280457  0.33306152     0.09800
H1286       H  0.38813058  0.23467528  0.35595782     0.14300
H1287       H  0.36526358  0.10252945  0.40310011     0.00100
H1288       H  0.49331007  0.15502734  0.36612076     0.14600
H1289       H  0.40582024  0.13623800  0.27173620     0.14400
O1290       O  0.53262157  0.90871869  0.53733465    -0.78800
C1291       C  0.41293057  0.93196746  0.45739670     0.82300
O1292       O  0.57387938  0.00443081  0.41670398    -0.79900
O1293       O  0.42981361  0.07038485  0.44639578    -0.81400
O1294       O  0.46342711  0.03973615  0.59979468    -0.81200
O1295       O  0.54008419  0.95767106  0.59061228    -0.79800
Zn1296     Zn  0.50865713  0.94423874  0.48537338     1.55700
O1297       O  0.41092097  0.04756972  0.54983046    -0.81200
Cd1298     Cd  0.51534104  0.01436631  0.56289239     1.59700
Cd1299     Cd  0.53791314  0.04460569  0.46061102     1.59600
O1300       O  0.56443318  0.05925363  0.56752114    -0.81200
O1301       O  0.50040199  0.00596215  0.49964782    -1.91700
Cd1302     Cd  0.43716299  0.02215380  0.49263233     1.59900
O1303       O  0.58197807  0.08108590  0.50019435    -0.81100
O1304       O  0.40071646  0.96973312  0.46974235    -0.79800
C1305       C  0.57554257  0.96280361  0.41278677     0.82700
C1306       C  0.54467161  0.91907595  0.57591388     0.82400
O1307       O  0.45221546  0.91875120  0.46178110    -0.78700
C1308       C  0.42526709  0.05232841  0.58862652     0.83200
O1309       O  0.55264734  0.93796290  0.43695028    -0.78800
C1310       C  0.58714357  0.08255214  0.54177047     0.83300
C1311       C  0.45537143  0.09298065  0.42274543     0.83700
O1312       O  0.49701317  0.08795719  0.42436459    -0.81300
loop_ 
_geom_bond_atom_site_label_1 
_geom_bond_atom_site_label_2 
_geom_bond_distance 
_geom_bond_site_symmetry_2 
_ccdc_geom_bond_type 
O1           C17   1.276       .  A
O1           Zn7   1.987       .  S
C2           O18   1.270       .  A
C2           O15   1.279       .  A
C2          C414   1.480       .  S
O3           C16   1.284       .  A
O3          Cd10   2.081       .  S
O4           C22   1.271       .  A
O4          Cd13   2.046       .  S
O5           C19   1.277       .  A
O5           Cd9   2.050       .  S
O6           C17   1.278       .  A
O6           Cd9   2.053       .  S
Zn7          O18   2.011       .  S
Zn7          O20   1.974       .  S
Zn7          O12   1.876       .  S
O8           C19   1.278       .  A
O8          Cd13   2.059       .  S
Cd9          O11   2.120       .  S
Cd9          O12   1.961       .  S
Cd10         O14   2.060       .  S
Cd10         O23   2.084       .  S
Cd10         O12   1.932       .  S
O11          C21   1.283       .  A
O12         Cd13   1.938       .  S
Cd13         O15   2.112       .  S
O14          C21   1.272       .  A
C16          O20   1.269       .  A
C16         C356   1.462       .  S
C17         C268   1.485       .  S
C19        C1254   1.487       .  S
C21         C591   1.490       .  S
C22          O23   1.282       .  A
C22         C605   1.455       .  S
O24          C40   1.270       .  A
O24         Zn30   2.015   1_556  S
C25          O41   1.279       .  A
C25          O38   1.279       .  A
C25         C926   1.494       .  S
O26          C39   1.283       .  A
O26         Cd33   2.078       .  S
O27          C45   1.284       .  A
O27         Cd36   2.118       .  S
O28          C42   1.278       .  A
O28         Cd32   2.051       .  S
O29          C40   1.278       .  A
O29         Cd32   2.109       .  S
Zn30         O41   2.002       .  S
Zn30         O43   1.973       .  S
Zn30         O35   1.875   1_554  S
O31          C42   1.275       .  A
O31         Cd36   2.047   1_556  S
Cd32         O34   2.050       .  S
Cd32         O35   1.938       .  S
Cd33         O37   2.084   1_554  S
Cd33         O46   2.059       .  S
Cd33         O35   1.934   1_554  S
O34          C44   1.271       .  A
O35         Cd36   1.967   1_556  S
Cd36         O38   2.067       .  S
O37          C44   1.282       .  A
C39          O43   1.270       .  A
C39        C1109   1.460       .  S
C40        C1080   1.480       .  S
C42         C738   1.484       .  S
C44         C499   1.457       .  S
C45          O46   1.272       .  A
C45         C458   1.488       .  S
O47          C63   1.271       .  A
O47         Zn53   2.015       .  S
C48          O64   1.278       .  A
C48          O61   1.277       .  A
C48         C504   1.487       .  S
O49          C62   1.285       .  A
O49         Cd56   2.086       .  S
O50          C68   1.283       .  A
O50         Cd59   2.119       .  S
O51          C65   1.278       .  A
O51         Cd55   2.058       .  S
O52          C63   1.278       .  A
O52         Cd55   2.107       .  S
Zn53         O64   1.993       .  S
Zn53         O66   1.975       .  S
Zn53         O58   1.876       .  S
O54          C65   1.275       .  A
O54         Cd59   2.042       .  S
Cd55         O57   2.052       .  S
Cd55         O58   1.937       .  S
Cd56         O60   2.095       .  S
Cd56         O69   2.066       .  S
Cd56         O58   1.932       .  S
O57          C67   1.271       .  A
O58         Cd59   1.963       .  S
Cd59         O61   2.055       .  S
O60          C67   1.284       .  A
C62          O66   1.269       .  A
C62        C1097   1.464       .  S
C63        C1116   1.479       .  S
C65         C598   1.483       .  S
C67         C416   1.461       .  S
C68          O69   1.273       .  A
C68         C363   1.491       .  S
O70          C86   1.270       .  A
O70         Zn76   2.014       .  S
C71          O87   1.276       .  A
C71          O84   1.279       .  A
C71        C1278   1.487       .  S
O72          C85   1.285       .  A
O72         Cd79   2.087       .  S
O73          C91   1.284       .  A
O73         Cd82   2.124       .  S
O74          C88   1.277       .  A
O74         Cd78   2.059       .  S
O75          C86   1.279       .  A
O75         Cd78   2.114       .  S
Zn76         O87   1.988       .  S
Zn76         O89   1.978       .  S
Zn76         O81   1.877       .  S
O77          C88   1.276       .  A
O77         Cd82   2.056       .  S
Cd78         O80   2.049       .  S
Cd78         O81   1.938       .  S
Cd79         O83   2.086       .  S
Cd79         O92   2.058       .  S
Cd79         O81   1.934       .  S
O80          C90   1.271       .  A
O81         Cd82   1.965       .  S
Cd82         O84   2.055       .  S
O83          C90   1.283       .  A
C85          O89   1.270       .  A
C85         C769   1.465       .  S
C86         C788   1.482       .  S
C88         C610   1.490       .  S
C90         C451   1.457       .  S
C91          O92   1.272       .  A
C91         C506   1.490       .  S
O93         C109   1.269       .  A
O93         Zn99   2.010       .  S
C94         O110   1.277       .  A
C94         O107   1.279       .  A
C94         C622   1.488       .  S
O95         C108   1.285       .  A
O95        Cd102   2.091       .  S
O96         C114   1.284       .  A
O96        Cd105   2.125       .  S
O97         C111   1.280       .  A
O97        Cd101   2.070       .  S
O98         C109   1.279       .  A
O98        Cd101   2.115       .  S
Zn99        O110   1.990       .  S
Zn99        O112   1.971       .  S
Zn99        O104   1.883       .  S
O100        C111   1.276       .  A
O100       Cd105   2.055       .  S
Cd101       O103   2.048       .  S
Cd101       O104   1.942       .  S
Cd102       O106   2.093       .  S
Cd102       O115   2.064       .  S
Cd102       O104   1.937       .  S
O103        C113   1.271       .  A
O104       Cd105   1.965       .  S
Cd105       O107   2.055       .  S
O106        C113   1.283       .  A
C108        O112   1.268       .  A
C108       C1225   1.465       .  S
C109       C1280   1.481       .  S
C111        C361   1.493       .  S
C113        C251   1.459       .  S
C114        O115   1.273       .  A
C114        C258   1.492       .  S
O116        C132   1.278       .  A
O116       Zn122   2.002       .  S
C117        O133   1.271       .  A
C117        O130   1.278       .  A
C117        C449   1.482       .  S
O118        C131   1.285       .  A
O118       Cd125   2.094       .  S
O119        C137   1.270       .  A
O119       Cd128   2.049       .  S
O120        C134   1.276       .  A
O120       Cd124   2.052       .  S
O121        C132   1.279       .  A
O121       Cd124   2.066       .  S
Zn122       O133   2.019       .  S
Zn122       O135   1.981       .  S
Zn122       O127   1.880       .  S
O123        C134   1.278       .  A
O123       Cd128   2.058       .  S
Cd124       O126   2.124       .  S
Cd124       O127   1.971       .  S
Cd125       O129   2.060       .  S
Cd125       O138   2.100       .  S
Cd125       O127   1.941       .  S
O126        C136   1.284       .  A
O127       Cd128   1.941       .  S
Cd128       O130   2.112       .  S
O129        C136   1.273       .  A
C131        O135   1.271       .  A
C131        C463   1.467       .  S
C132       C1102   1.495       .  S
C134        C385   1.488       .  S
C136        C567   1.490       .  S
C137        O138   1.284       .  A
C137        C617   1.462       .  S
O139        C155   1.277       .  A
O139       Zn145   1.995       .  S
C140        O156   1.271       .  A
C140        O153   1.278       .  A
C140        C390   1.481       .  S
O141        C154   1.284       .  A
O141       Cd148   2.083       .  S
O142        C160   1.271       .  A
O142       Cd151   2.049       .  S
O143        C157   1.276       .  A
O143       Cd147   2.052   1_655  S
O144        C155   1.279       .  A
O144       Cd147   2.061       .  S
Zn145       O156   2.020   1_455  S
Zn145       O158   1.978       .  S
Zn145       O150   1.882       .  S
O146        C157   1.277       .  A
O146       Cd151   2.053       .  S
Cd147       O149   2.121       .  S
Cd147       O150   1.968       .  S
Cd148       O152   2.060       .  S
Cd148       O161   2.088   1_455  S
Cd148       O150   1.939       .  S
O149        C159   1.284       .  A
O150       Cd151   1.940   1_455  S
Cd151       O153   2.108       .  S
O152        C159   1.272       .  A
C154        O158   1.270       .  A
C154        C368   1.464       .  S
C155       C1090   1.491       .  S
C157        C914   1.486       .  S
C159        C249   1.490       .  S
C160        O161   1.283       .  A
C160        C227   1.458       .  S
O162        C178   1.270       .  A
O162       Zn168   2.014   1_545  S
C163        O179   1.277       .  A
C163        O176   1.279       .  A
C163       C1266   1.494       .  S
O164        C177   1.285       .  A
O164       Cd171   2.088       .  S
O165        C183   1.284       .  A
O165       Cd174   2.125       .  S
O166        C180   1.279       .  A
O166       Cd170   2.059       .  S
O167        C178   1.279       .  A
O167       Cd170   2.115       .  S
Zn168       O179   1.999       .  S
Zn168       O181   1.969       .  S
Zn168       O173   1.885   1_565  S
O169        C180   1.275       .  A
O169       Cd174   2.052   1_545  S
Cd170       O172   2.049       .  S
Cd170       O173   1.937       .  S
Cd171       O175   2.099   1_565  S
Cd171       O184   2.066       .  S
Cd171       O173   1.940   1_565  S
O172        C182   1.270       .  A
O173       Cd174   1.968   1_545  S
Cd174       O176   2.064       .  S
O175        C182   1.284       .  A
C177        O181   1.269       .  A
C177        C215   1.461       .  S
C178        C222   1.482       .  S
C180        C786   1.489       .  S
C182        C921   1.462       .  S
C183        O184   1.273       .  A
C183        C928   1.493       .  S
O185        C201   1.278       .  A
O185       Zn191   1.996       .  S
C186        O202   1.271       .  A
C186        O199   1.277       .  A
C186       C1235   1.479       .  S
O187        C200   1.284       .  A
O187       Cd194   2.080       .  S
O188        C206   1.270       .  A
O188       Cd197   2.043       .  S
O189        C203   1.277       .  A
O189       Cd193   2.053       .  S
O190        C201   1.279       .  A
O190       Cd193   2.065       .  S
Zn191       O202   2.016       .  S
Zn191       O204   1.984       .  S
Zn191       O196   1.874       .  S
O192        C203   1.277       .  A
O192       Cd197   2.055       .  S
Cd193       O195   2.122       .  S
Cd193       O196   1.964       .  S
Cd194       O198   2.063       .  S
Cd194       O207   2.083       .  S
Cd194       O196   1.934       .  S
O195        C205   1.284       .  A
O196       Cd197   1.938       .  S
Cd197       O199   2.104       .  S
O198        C205   1.273       .  A
C200        O204   1.271       .  A
C200       C1273   1.464       .  S
C201        C562   1.490       .  S
C203        C373   1.488       .  S
C205        C213   1.490       .  S
C206        O207   1.281       .  A
C206        C239   1.454       .  S
C208        C837   1.491       .  S
C208        C209   1.541       .  S
C208        C214   1.521       .  S
C208        C212   1.540       .  S
C209        H216   1.086       .  S
C209        C210   1.369       .  D
C210        C281   1.472       .  S
C210        C211   1.542       .  S
C211        C215   1.538       .  S
C211        C213   1.556       .  S
C211        H217   1.111       .  S
C212        H218   1.086       .  S
C212        C213   1.368       .  D
C214        H219   1.089       .  S
C214        C215   1.345       .  D
C220        C321   1.486       .  S
C220        C221   1.533       .  S
C220        C226   1.517       .  S
C220        C224   1.541       .  S
C221        H228   1.086       .  S
C221        C222   1.360       .  D
C222        C223   1.555       .  S
C223        C227   1.545       .  S
C223        C225   1.556       .  S
C223        H229   1.111       .  S
C224        H230   1.086       .  S
C224        C225   1.374       .  D
C225        C295   1.491       .  S
C226        H231   1.089       .  S
C226        C227   1.346       .  D
C232       C1213   1.487       .  S
C232        C233   1.538       .  S
C232        C238   1.519       .  S
C232        C236   1.544       .  S
C233        H240   1.086       .  S
C233        C234   1.366       .  D
C234        C347   1.488       .  S
C234        C235   1.552       .  S
C235        C239   1.537       .  S
C235        C237   1.550       .  S
C235        H241   1.110       .  S
C236        H242   1.086   1_565  S
C236        C237   1.372       .  D
C237        C301   1.485       .  S
C238        H243   1.089       .  S
C238        C239   1.344       .  D
C244        C698   1.485       .  S
C244        C245   1.539       .  S
C244        C250   1.521       .  S
C244        C248   1.539       .  S
C245        H252   1.086       .  S
C245        C246   1.366       .  D
C246        C296   1.472       .  S
C246        C247   1.545       .  S
C247        C251   1.540       .  S
C247        C249   1.556       .  S
C247        H253   1.111       .  S
C248        H254   1.086       .  S
C248        C249   1.368       .  D
C250        H255   1.089       .  S
C250        C251   1.345       .  D
C256       C1032   1.493       .  S
C256        C257   1.542       .  S
C256        C262   1.520       .  S
C256        C260   1.545       .  S
C257        H264   1.086       .  S
C257        C258   1.367       .  D
C258        C259   1.552       .  S
C259        C263   1.535       .  S
C259        C261   1.547       .  S
C259        H265   1.110       .  S
C260        H266   1.086       .  S
C260        C261   1.373       .  D
C261        C300   1.485       .  S
C262        H267   1.089       .  S
C262        C263   1.345       .  D
C263        C882   1.460       .  S
C268        C269   1.540       .  S
C268        C274   1.518       .  S
C268        C272   1.535       .  S
C269        H276   1.086       .  S
C269        C270   1.370       .  D
C270        C298   1.476       .  S
C270        C271   1.548       .  S
C271        C275   1.544       .  S
C271        C273   1.554       .  S
C271        H277   1.111       .  S
C272        H278   1.086       .  S
C272        C273   1.361       .  D
C273        C868   1.478       .  S
C274        H279   1.090       .  S
C274        C275   1.345       .  D
C275        C346   1.456       .  S
O280        C296   1.276       .  A
O280       Zn286   2.046   1_455  S
C281        O297   1.276       .  A
C281        O294   1.274       .  A
O282        C295   1.281       .  A
O282       Cd289   2.112       .  S
O283        C301   1.272       .  A
O283       Cd292   2.054       .  S
O284        C298   1.276       .  A
O284       Cd288   2.094   1_565  S
O285        C296   1.273       .  A
O285       Cd288   2.066       .  S
Zn286       O297   2.031   1_545  S
Zn286       O299   2.023       .  S
Zn286       O291   1.958   1_655  S
O287        C298   1.274       .  A
O287       Cd292   2.078   1_455  S
Cd288       O290   2.045       .  S
Cd288       O291   2.001       .  S
Cd289       O293   2.118   1_655  S
Cd289       O302   2.116       .  S
Cd289       O291   2.030   1_655  S
O290        C300   1.271       .  A
O291       Cd292   2.006   1_445  S
Cd292       O294   2.082       .  S
O293        C300   1.281       .  A
C295        O299   1.273       .  A
C301        O302   1.281   1_565  A
O303        C319   1.271       .  A
O303       Zn309   2.021       .  S
C304        O320   1.279       .  A
C304        O317   1.279       .  A
C304       C1242   1.496       .  S
O305        C318   1.284       .  A
O305       Cd312   2.079       .  S
O306        C324   1.285       .  A
O306       Cd315   2.127       .  S
O307        C321   1.279       .  A
O307       Cd311   2.054       .  S
O308        C319   1.279       .  A
O308       Cd311   2.118       .  S
Zn309       O320   2.004       .  S
Zn309       O322   1.972       .  S
Zn309       O314   1.882       .  S
O310        C321   1.276       .  A
O310       Cd315   2.051       .  S
Cd311       O313   2.053       .  S
Cd311       O314   1.940       .  S
Cd312       O316   2.090       .  S
Cd312       O325   2.061       .  S
Cd312       O314   1.939       .  S
O313        C323   1.271       .  A
O314       Cd315   1.973       .  S
Cd315       O317   2.072       .  S
O316        C323   1.282       .  A
C318        O322   1.269       .  A
C318        C581   1.460       .  S
C319        C612   1.485       .  S
C323        C392   1.460       .  S
C324        O325   1.272       .  A
C324        C399   1.492       .  S
O326        C342   1.271       .  A
O326       Zn332   2.020   1_455  S
C327        O343   1.278       .  A
C327        O340   1.279       .  A
C327       C1078   1.492       .  S
O328        C341   1.285       .  A
O328       Cd335   2.088       .  S
O329        C347   1.283       .  A
O329       Cd338   2.115       .  S
O330        C344   1.278       .  A
O330       Cd334   2.056       .  S
O331        C342   1.280       .  A
O331       Cd334   2.119       .  S
Zn332       O343   2.004       .  S
Zn332       O345   1.981       .  S
Zn332       O337   1.878       .  S
O333        C344   1.274       .  A
O333       Cd338   2.044   1_455  S
Cd334       O336   2.045       .  S
Cd334       O337   1.934   1_455  S
Cd335       O339   2.089   1_655  S
Cd335       O348   2.062       .  S
Cd335       O337   1.933       .  S
O336        C346   1.269       .  A
O337       Cd338   1.963       .  S
Cd338       O340   2.056       .  S
O339        C346   1.284       .  A
C341        O345   1.271       .  A
C341        C380   1.465       .  S
C342        C351   1.485       .  S
C344        C938   1.485       .  S
C347        O348   1.272       .  A
C349        C540   1.493       .  S
C349        C350   1.537       .  S
C349        C355   1.517       .  S
C349        C353   1.542       .  S
C350        H357   1.086       .  S
C350        C351   1.361       .  D
C351        C352   1.555       .  S
C352        C356   1.544       .  S
C352        C354   1.553       .  S
C352        H358   1.111       .  S
C353        H359   1.086       .  S
C353        C354   1.373       .  D
C354        C436   1.491       .  S
C355        H360   1.089       .  S
C355        C356   1.349       .  D
C361        C362   1.540       .  S
C361        C367   1.520       .  S
C361        C365   1.546       .  S
C362        H369   1.086       .  S
C362        C363   1.367       .  D
C363        C364   1.551       .  S
C364        C368   1.537       .  S
C364        C366   1.547       .  S
C364        H370   1.110       .  S
C365        H371   1.086       .  S
C365        C366   1.372       .  D
C366        C441   1.484       .  S
C367        H372   1.089       .  S
C367        C368   1.348       .  D
C373        C374   1.539       .  S
C373        C379   1.520       .  S
C373        C377   1.535       .  S
C374        H381   1.086       .  S
C374        C375   1.367       .  D
C375        C422   1.476       .  S
C375        C376   1.549       .  S
C376        C380   1.544       .  S
C376        C378   1.557       .  S
C376        H382   1.111       .  S
C377        H383   1.086       .  S
C377        C378   1.363       .  D
C378       C1009   1.485       .  S
C379        H384   1.089       .  S
C379        C380   1.352       .  D
C385        C386   1.541       .  S
C385        C391   1.519       .  S
C385        C389   1.535       .  S
C386        H393   1.086       .  S
C386        C387   1.369       .  D
C387        C439   1.479       .  S
C387        C388   1.550       .  S
C388        C392   1.545       .  S
C388        C390   1.554       .  S
C388        H394   1.111       .  S
C389        H395   1.086       .  S
C389        C390   1.363       .  D
C391        H396   1.089       .  S
C391        C392   1.347       .  D
C397       C1049   1.487       .  S
C397        C398   1.538       .  S
C397        C403   1.522       .  S
C397        C401   1.544       .  S
C398        H405   1.086       .  S
C398        C399   1.365       .  D
C399        C400   1.554       .  S
C400        C404   1.540       .  S
C400        C402   1.550       .  S
C400        H406   1.110       .  S
C401        H407   1.086       .  S
C401        C402   1.370       .  D
C402        C442   1.484       .  S
C403        H408   1.089       .  S
C403        C404   1.349       .  D
C404       C1023   1.466       .  S
C409        C839   1.483       .  S
C409        C410   1.537       .  S
C409        C415   1.520       .  S
C409        C413   1.534       .  S
C410        H417   1.086       .  S
C410        C411   1.367       .  D
C411        C437   1.478       .  S
C411        C412   1.552       .  S
C412        C416   1.546       .  S
C412        C414   1.555       .  S
C412        H418   1.111       .  S
C413        H419   1.086       .  S
C413        C414   1.361       .  D
C415        H420   1.089       .  S
C415        C416   1.348       .  D
O421        C437   1.278       .  A
O421       Zn427   2.059       .  S
C422        O438   1.277       .  A
C422        O435   1.274       .  A
O423        C436   1.282       .  A
O423       Cd430   2.119       .  S
O424        C442   1.270       .  A
O424       Cd433   2.044       .  S
O425        C439   1.277       .  A
O425       Cd429   2.103   1_655  S
O426        C437   1.274       .  A
O426       Cd429   2.074       .  S
Zn427       O438   2.041   1_455  S
Zn427       O440   2.015       .  S
Zn427       O432   1.958   1_455  S
O428        C439   1.274       .  A
O428       Cd433   2.078       .  S
Cd429       O431   2.047       .  S
Cd429       O432   2.004   1_455  S
Cd430       O434   2.117       .  S
Cd430       O443   2.119   1_455  S
Cd430       O432   2.033   1_455  S
O431        C441   1.272       .  A
O432       Cd433   2.005       .  S
Cd433       O435   2.081       .  S
O434        C441   1.281       .  A
C436        O440   1.273       .  A
C442        O443   1.282       .  A
C444        C862   1.486       .  S
C444        C445   1.541       .  S
C444        C450   1.517       .  S
C444        C448   1.535       .  S
C445        H452   1.086       .  S
C445        C446   1.373       .  D
C446        C537   1.488       .  S
C446        C447   1.555       .  S
C447        C451   1.544       .  S
C447        C449   1.553       .  S
C447        H453   1.111       .  S
C448        H454   1.086       .  S
C448        C449   1.361       .  D
C450        H455   1.089       .  S
C450        C451   1.346       .  D
C456       C1167   1.489       .  S
C456        C457   1.538       .  S
C456        C462   1.523       .  S
C456        C460   1.541       .  S
C457        H464   1.086       .  S
C457        C458   1.367       .  D
C458        C459   1.554       .  S
C459        C463   1.541       .  S
C459        C461   1.542       .  S
C459        H465   1.111       .  S
C460        H466   1.086       .  S
C460        C461   1.367       .  D
C461        C517   1.469       .  S
C462        H467   1.089       .  S
C462        C463   1.350       .  D
C468       C1190   1.487       .  S
C468        C469   1.543       .  S
C468        C474   1.521       .  S
C468        C472   1.540       .  S
C469        H476   1.086       .  S
C469        C470   1.371       .  D
C470        C536   1.484       .  S
C470        C471   1.550       .  S
C471        C475   1.537       .  S
C471        C473   1.553       .  S
C471        H477   1.110       .  S
C472        H478   1.086       .  S
C472        C473   1.366       .  D
C473       C1005   1.491       .  S
C474        H479   1.089       .  S
C474        C475   1.345       .  D
C475        C559   1.456       .  S
C480        C721   1.491       .  S
C480        C481   1.540       .  S
C480        C486   1.522       .  S
C480        C484   1.542       .  S
C481        H488   1.086       .  S
C481        C482   1.369       .  D
C482        C560   1.491       .  S
C482        C483   1.555       .  S
C483        C487   1.538       .  S
C483        C485   1.540       .  S
C483        H489   1.111       .  S
C484        H490   1.086       .  S
C484        C485   1.367       .  D
C485        C532   1.470       .  S
C486        H491   1.089       .  S
C486        C487   1.349       .  D
C487        C672   1.464       .  S
C492       C1026   1.489       .  S
C492        C493   1.541       .  S
C492        C498   1.518       .  S
C492        C496   1.536       .  S
C493        H500   1.086       .  S
C493        C494   1.372       .  D
C494        C531   1.490       .  S
C494        C495   1.555       .  S
C495        C499   1.544       .  S
C495        C497   1.553       .  S
C495        H501   1.111       .  S
C496        H502   1.086       .  S
C496        C497   1.363       .  D
C497        C658   1.483       .  S
C498        H503   1.089       .  S
C498        C499   1.347       .  D
C504        C505   1.541       .  S
C504        C510   1.520       .  S
C504        C508   1.539       .  S
C505        H512   1.086       .  S
C505        C506   1.368       .  D
C506        C507   1.555       .  S
C507        C511   1.538       .  S
C507        C509   1.543       .  S
C507        H513   1.111       .  S
C508        H514   1.086       .  S
C508        C509   1.368       .  D
C509        C534   1.470       .  S
C510        H515   1.089       .  S
C510        C511   1.343       .  D
C511       C1006   1.454       .  S
O516        C532   1.275       .  A
O516       Zn522   2.030       .  S
C517        O533   1.276       .  A
C517        O530   1.273       .  A
O518        C531   1.281       .  A
O518       Cd525   2.113       .  S
O519        C537   1.272       .  A
O519       Cd528   2.059       .  S
O520        C534   1.273       .  A
O520       Cd524   2.067   1_554  S
O521        C532   1.273       .  A
O521       Cd524   2.075       .  S
Zn522       O533   2.043   1_556  S
Zn522       O535   2.020       .  S
Zn522       O527   1.958   1_556  S
O523        C534   1.275       .  A
O523       Cd528   2.087       .  S
Cd524       O526   2.048       .  S
Cd524       O527   2.002   1_556  S
Cd525       O529   2.115       .  S
Cd525       O538   2.117   1_556  S
Cd525       O527   2.023   1_556  S
O526        C536   1.271       .  A
O527       Cd528   2.004       .  S
Cd528       O530   2.060       .  S
O529        C536   1.281       .  A
C531        O535   1.273       .  A
C537        O538   1.282       .  A
O539        C555   1.271       .  A
O539       Zn545   2.018       .  S
C540        O556   1.278       .  A
C540        O553   1.278       .  A
O541        C554   1.283       .  A
O541       Cd548   2.074       .  S
O542        C560   1.283       .  A
O542       Cd551   2.123       .  S
O543        C557   1.278       .  A
O543       Cd547   2.058       .  S
O544        C555   1.278       .  A
O544       Cd547   2.106       .  S
Zn545       O556   2.003       .  S
Zn545       O558   1.974       .  S
Zn545       O550   1.884       .  S
O546        C557   1.276       .  A
O546       Cd551   2.051       .  S
Cd547       O549   2.045       .  S
Cd547       O550   1.942       .  S
Cd548       O552   2.085       .  S
Cd548       O561   2.063       .  S
Cd548       O550   1.941       .  S
O549        C559   1.270       .  A
O550       Cd551   1.965       .  S
Cd551       O553   2.055       .  S
O552        C559   1.281       .  A
C554        O558   1.269       .  A
C554        C593   1.460       .  S
C555        C624   1.479       .  S
C557       C1066   1.488       .  S
C560        O561   1.272       .  A
C562        C563   1.543       .  S
C562        C568   1.518       .  S
C562        C566   1.542       .  S
C563        H570   1.086       .  S
C563        C564   1.372       .  D
C564        C655   1.487       .  S
C564        C565   1.550       .  S
C565        C569   1.538       .  S
C565        C567   1.553       .  S
C565        H571   1.110       .  S
C566        H572   1.086       .  S
C566        C567   1.369       .  D
C568        H573   1.090       .  S
C568        C569   1.340       .  D
C569       C1169   1.454       .  S
C574       C1024   1.495       .  S
C574        C575   1.547       .  S
C574        C580   1.521       .  S
C574        C578   1.540       .  S
C575        H582   1.086       .  S
C575        C576   1.375       .  D
C576        C649   1.488       .  S
C576        C577   1.547       .  S
C577        C581   1.536       .  S
C577        C579   1.552       .  S
C577        H583   1.110       .  S
C578        H584   1.086       .  S
C578        C579   1.366       .  D
C579       C1192   1.489       .  S
C580        H585   1.089       .  S
C580        C581   1.346       .  D
C586        C673   1.494       .  S
C586        C587   1.546       .  S
C586        C592   1.520       .  S
C586        C590   1.540       .  S
C587        H594   1.086       .  S
C587        C588   1.374       .  D
C588        C654   1.485       .  S
C588        C589   1.547       .  S
C589        C593   1.534       .  S
C589        C591   1.552       .  S
C589        H595   1.110       .  S
C590        H596   1.086       .  S
C590        C591   1.367       .  D
C592        H597   1.089       .  S
C592        C593   1.346       .  D
C598        C599   1.537       .  S
C598        C604   1.519       .  S
C598        C602   1.540       .  S
C599        H606   1.086       .  S
C599        C600   1.367       .  D
C600       C1170   1.488       .  S
C600        C601   1.557       .  S
C601        C605   1.539       .  S
C601        C603   1.546       .  S
C601        H607   1.111       .  S
C602        H608   1.086       .  S
C602        C603   1.367       .  D
C603        C652   1.473       .  S
C604        H609   1.089       .  S
C604        C605   1.344       .  D
C610        C611   1.536       .  S
C610        C616   1.520       .  S
C610        C614   1.541       .  S
C611        H618   1.086       .  S
C611        C612   1.362       .  D
C612        C613   1.556       .  S
C613        C617   1.547       .  S
C613        C615   1.550       .  S
C613        H619   1.111       .  S
C614        H620   1.086       .  S
C614        C615   1.370       .  D
C615        C635   1.479       .  S
C616        H621   1.089       .  S
C616        C617   1.347       .  D
C622        C623   1.535       .  S
C622        C628   1.518       .  S
C622        C626   1.542       .  S
C623        H630   1.086       .  S
C623        C624   1.361       .  D
C624        C625   1.554       .  S
C625        C629   1.542       .  S
C625        C627   1.548       .  S
C625        H631   1.111       .  S
C626        H632   1.086       .  S
C626        C627   1.371       .  D
C627        C650   1.480       .  S
C628        H633   1.090       .  S
C628        C629   1.345       .  D
C629       C1193   1.454       .  S
O634        C650   1.277       .  A
O634       Zn640   2.049       .  S
C635        O651   1.278       .  A
C635        O648   1.274       .  A
O636        C649   1.281       .  A
O636       Cd643   2.115       .  S
O637        C655   1.272       .  A
O637       Cd646   2.056       .  S
O638        C652   1.274       .  A
O638       Cd642   2.073       .  S
O639        C650   1.275       .  A
O639       Cd642   2.090       .  S
Zn640       O651   2.062       .  S
Zn640       O653   2.008       .  S
Zn640       O645   1.955       .  S
O641        C652   1.275       .  A
O641       Cd646   2.088       .  S
Cd642       O644   2.048       .  S
Cd642       O645   2.003       .  S
Cd643       O647   2.117       .  S
Cd643       O656   2.118       .  S
Cd643       O645   2.039       .  S
O644        C654   1.272       .  A
O645       Cd646   2.005       .  S
Cd646       O648   2.074       .  S
O647        C654   1.280       .  A
C649        O653   1.274       .  A
C655        O656   1.281       .  A
O657        C673   1.277       .  A
O657       Zn663   1.998       .  S
C658        O674   1.271       .  A
C658        O671   1.279       .  A
O659        C672   1.284       .  A
O659       Cd666   2.086       .  S
O660        C678   1.270       .  A
O660       Cd669   2.050       .  S
O661        C675   1.275       .  A
O661       Cd665   2.051       .  S
O662        C673   1.279       .  A
O662       Cd665   2.069       .  S
Zn663       O674   2.018       .  S
Zn663       O676   1.977       .  S
Zn663       O668   1.881       .  S
O664        C675   1.278       .  A
O664       Cd669   2.055       .  S
Cd665       O667   2.123       .  S
Cd665       O668   1.970       .  S
Cd666       O670   2.058       .  S
Cd666       O679   2.097       .  S
Cd666       O668   1.940       .  S
O667        C677   1.284       .  A
O668       Cd669   1.938       .  S
Cd669       O671   2.115       .  S
O670        C677   1.272       .  A
C672        O676   1.270       .  A
C675       C1230   1.487       .  S
C677        C731   1.489       .  S
C678        O679   1.284       .  A
C678        C745   1.462       .  S
O680        C696   1.278       .  A
O680       Zn686   1.995       .  S
C681        O697   1.272       .  A
C681        O694   1.278       .  A
C681        C767   1.481       .  S
O682        C695   1.283       .  A
O682       Cd689   2.076       .  S
O683        C701   1.270       .  A
O683       Cd692   2.049       .  S
O684        C698   1.276       .  A
O684       Cd688   2.049   1_545  S
O685        C696   1.278       .  A
O685       Cd688   2.052       .  S
Zn686       O697   2.020   1_565  S
Zn686       O699   1.979       .  S
Zn686       O691   1.875   1_565  S
O687        C698   1.277       .  A
O687       Cd692   2.055       .  S
Cd688       O690   2.120       .  S
Cd688       O691   1.959   1_565  S
Cd689       O693   2.056       .  S
Cd689       O702   2.079   1_565  S
Cd689       O691   1.932   1_565  S
O690        C700   1.284       .  A
O691       Cd692   1.935       .  S
Cd692       O694   2.107       .  S
O693        C700   1.271       .  A
C695        O699   1.270       .  A
C695        C757   1.461       .  S
C696        C902   1.488       .  S
C700       C1259   1.488       .  S
C701        O702   1.282       .  A
C701       C1285   1.454       .  S
O703        C719   1.270       .  A
O703       Zn709   2.010   1_556  S
C704        O720   1.277       .  A
C704        O717   1.278       .  A
C704       C1114   1.488       .  S
O705        C718   1.285       .  A
O705       Cd712   2.087       .  S
O706        C724   1.284       .  A
O706       Cd715   2.126       .  S
O707        C721   1.278       .  A
O707       Cd711   2.065       .  S
O708        C719   1.279       .  A
O708       Cd711   2.111       .  S
Zn709       O720   1.991       .  S
Zn709       O722   1.976       .  S
Zn709       O714   1.884   1_554  S
O710        C721   1.277       .  A
O710       Cd715   2.052   1_556  S
Cd711       O713   2.046       .  S
Cd711       O714   1.941       .  S
Cd712       O716   2.091   1_554  S
Cd712       O725   2.067       .  S
Cd712       O714   1.938   1_554  S
O713        C723   1.270       .  A
O714       Cd715   1.965   1_556  S
Cd715       O717   2.057       .  S
O716        C723   1.283       .  A
C718        O722   1.269       .  A
C718        C909   1.464       .  S
C719        C940   1.479       .  S
C723        C733   1.458       .  S
C724        O725   1.273       .  A
C724        C752   1.493       .  S
C726        C885   1.485       .  S
C726        C727   1.540       .  S
C726        C732   1.520       .  S
C726        C730   1.538       .  S
C727        H734   1.086   1_565  S
C727        C728   1.368       .  D
C728        C814   1.471       .  S
C728        C729   1.545       .  S
C729        C733   1.541       .  S
C729        C731   1.556       .  S
C729        H735   1.111       .  S
C730        H736   1.086       .  S
C730        C731   1.367       .  D
C732        H737   1.089       .  S
C732        C733   1.344       .  D
C738        C739   1.532       .  S
C738        C744   1.519       .  S
C738        C742   1.540       .  S
C739        H746   1.087       .  S
C739        C740   1.358       .  D
C740       C1211   1.484       .  S
C740        C741   1.558       .  S
C741        C745   1.548       .  S
C741        C743   1.558       .  S
C741        H747   1.110       .  S
C742        H748   1.086       .  S
C742        C743   1.372       .  D
C743        C813   1.491       .  S
C744        H749   1.089       .  S
C744        C745   1.348       .  D
C750       C1150   1.493       .  S
C750        C751   1.543       .  S
C750        C756   1.520       .  S
C750        C754   1.545       .  S
C751        H758   1.086       .  S
C751        C752   1.368       .  D
C752        C753   1.552       .  S
C753        C757   1.534       .  S
C753        C755   1.550       .  S
C753        H759   1.110       .  S
C754        H760   1.086       .  S
C754        C755   1.372       .  D
C755        C818   1.485       .  S
C756        H761   1.089       .  S
C756        C757   1.345       .  D
C762       C1003   1.489       .  S
C762        C763   1.540       .  S
C762        C768   1.521       .  S
C762        C766   1.535       .  S
C763        H770   1.086       .  S
C763        C764   1.368       .  D
C764        C816   1.473       .  S
C764        C765   1.545       .  S
C765        C769   1.543       .  S
C765        C767   1.553       .  S
C765        H771   1.111       .  S
C766        H772   1.086       .  S
C766        C767   1.362       .  D
C768        H773   1.089       .  S
C768        C769   1.352       .  D
C774       C1188   1.489       .  S
C774        C775   1.541       .  S
C774        C780   1.519       .  S
C774        C778   1.540       .  S
C775        H782   1.086       .  S
C775        C776   1.369       .  D
C776        C799   1.472       .  S
C776        C777   1.542       .  S
C777        C781   1.540       .  S
C777        C779   1.555       .  S
C777        H783   1.111       .  S
C778        H784   1.086       .  S
C778        C779   1.367       .  D
C779        C864   1.489       .  S
C780        H785   1.089       .  S
C780        C781   1.345       .  D
C781       C1210   1.461       .  S
C786        C787   1.535       .  S
C786        C792   1.519       .  S
C786        C790   1.545       .  S
C787        H794   1.086       .  S
C787        C788   1.362       .  D
C788        C789   1.552       .  S
C789        C793   1.542       .  S
C789        C791   1.554       .  S
C789        H795   1.111       .  S
C790        H796   1.086       .  S
C790        C791   1.373       .  D
C791        C819   1.491       .  S
C792        H797   1.089       .  S
C792        C793   1.347       .  D
C793        C865   1.456       .  S
O798        C814   1.275       .  A
O798       Zn804   2.046       .  S
C799        O815   1.275       .  A
C799        O812   1.276       .  A
O800        C813   1.283       .  A
O800       Cd807   2.122   1_556  S
O801        C819   1.273       .  A
O801       Cd810   2.064       .  S
O802        C816   1.274       .  A
O802       Cd806   2.082   1_545  S
O803        C814   1.272       .  A
O803       Cd806   2.061   1_556  S
Zn804       O815   2.023   1_565  S
Zn804       O817   2.014       .  S
Zn804       O809   1.958   1_565  S
O805        C816   1.275       .  A
O805       Cd810   2.081       .  S
Cd806       O808   2.035       .  S
Cd806       O809   2.000   1_564  S
Cd807       O811   2.129       .  S
Cd807       O820   2.126   1_565  S
Cd807       O809   2.031   1_564  S
O808        C818   1.270       .  A
O809       Cd810   2.008   1_556  S
Cd810       O812   2.088   1_554  S
O811        C818   1.283       .  A
C813        O817   1.272       .  A
C819        O820   1.283       .  A
O821        C837   1.279       .  A
O821       Zn827   1.996       .  S
C822        O838   1.271       .  A
C822        O835   1.278       .  A
C822        C907   1.483       .  S
O823        C836   1.284       .  A
O823       Cd830   2.076       .  S
O824        C842   1.270       .  A
O824       Cd833   2.045       .  S
O825        C839   1.277       .  A
O825       Cd829   2.050   1_455  S
O826        C837   1.279       .  A
O826       Cd829   2.065       .  S
Zn827       O838   2.023   1_655  S
Zn827       O840   1.968       .  S
Zn827       O832   1.870       .  S
O828        C839   1.276       .  A
O828       Cd833   2.048       .  S
Cd829       O831   2.124       .  S
Cd829       O832   1.964       .  S
Cd830       O834   2.059       .  S
Cd830       O843   2.079   1_655  S
Cd830       O832   1.926       .  S
O831        C841   1.284       .  A
O832       Cd833   1.932   1_655  S
Cd833       O835   2.109       .  S
O834        C841   1.272       .  A
C836        O840   1.270       .  A
C836        C933   1.458       .  S
C841       C1107   1.490       .  S
C842        O843   1.282       .  A
C842       C1121   1.453       .  S
O844        C860   1.277       .  A
O844       Zn850   1.990       .  S
C845        O861   1.270       .  A
C845        O858   1.279       .  A
C845        C919   1.482       .  S
O846        C859   1.285       .  A
O846       Cd853   2.087       .  S
O847        C865   1.270       .  A
O847       Cd856   2.044       .  S
O848        C862   1.276       .  A
O848       Cd852   2.051   1_554  S
O849        C860   1.279       .  A
O849       Cd852   2.061       .  S
Zn850       O861   2.012   1_556  S
Zn850       O863   1.973       .  S
Zn850       O855   1.871   1_556  S
O851        C862   1.278       .  A
O851       Cd856   2.055       .  S
Cd852       O854   2.122       .  S
Cd852       O855   1.962   1_556  S
Cd853       O857   2.062       .  S
Cd853       O866   2.088   1_556  S
Cd853       O855   1.928   1_556  S
O854        C864   1.285       .  A
O855       Cd856   1.934       .  S
Cd856       O858   2.113       .  S
O857        C864   1.273       .  A
C859        O863   1.269       .  A
C859        C957   1.464       .  S
C860       C1054   1.488       .  S
C865        O866   1.283       .  A
O867        C883   1.278       .  A
O867       Zn873   2.002       .  S
C868        O884   1.271       .  A
C868        O881   1.277       .  A
O869        C882   1.283       .  A
O869       Cd876   2.076       .  S
O870        C888   1.271       .  A
O870       Cd879   2.049       .  S
O871        C885   1.276       .  A
O871       Cd875   2.049   1_565  S
O872        C883   1.277       .  A
O872       Cd875   2.053       .  S
Zn873       O884   2.018   1_545  S
Zn873       O886   1.973       .  S
Zn873       O878   1.877       .  S
O874        C885   1.277       .  A
O874       Cd879   2.054       .  S
Cd875       O877   2.115       .  S
Cd875       O878   1.962       .  S
Cd876       O880   2.062       .  S
Cd876       O889   2.085   1_545  S
Cd876       O878   1.935       .  S
O877        C887   1.283       .  A
O878       Cd879   1.936   1_545  S
Cd879       O881   2.102       .  S
O880        C887   1.273       .  A
C882        O886   1.269       .  A
C883       C1218   1.492       .  S
C887        C895   1.488       .  S
C888        O889   1.282       .  A
C888        C945   1.457       .  S
C890       C1001   1.494       .  S
C890        C891   1.543       .  S
C890        C896   1.521       .  S
C890        C894   1.540       .  S
C891        H898   1.086       .  S
C891        C892   1.370       .  D
C892        C963   1.475       .  S
C892        C893   1.541       .  S
C893        C897   1.536       .  S
C893        C895   1.554       .  S
C893        H899   1.111       .  S
C894        H900   1.086       .  S
C894        C895   1.369       .  D
C896        H901   1.089       .  S
C896        C897   1.346       .  D
C897       C1046   1.460       .  S
C902        C903   1.540       .  S
C902        C908   1.517       .  S
C902        C906   1.534       .  S
C903        H910   1.086       .  S
C903        C904   1.369       .  D
C904        C980   1.478       .  S
C904        C905   1.549       .  S
C905        C909   1.546       .  S
C905        C907   1.558       .  S
C905        H911   1.111       .  S
C906        H912   1.086       .  S
C906        C907   1.362       .  D
C908        H913   1.089       .  S
C908        C909   1.347       .  D
C914        C915   1.540       .  S
C914        C920   1.520       .  S
C914        C918   1.533       .  S
C915        H922   1.086       .  S
C915        C916   1.369       .  D
C916        C978   1.479       .  S
C916        C917   1.551       .  S
C917        C921   1.547       .  S
C917        C919   1.556       .  S
C917        H923   1.111       .  S
C918        H924   1.086       .  S
C918        C919   1.361       .  D
C920        H925   1.089       .  S
C920        C921   1.348       .  D
C926        C927   1.543       .  S
C926        C932   1.519       .  S
C926        C930   1.546       .  S
C927        H934   1.086       .  S
C927        C928   1.368       .  D
C928        C929   1.552       .  S
C929        C933   1.536       .  S
C929        C931   1.551       .  S
C929        H935   1.110       .  S
C930        H936   1.086       .  S
C930        C931   1.373       .  D
C931        C982   1.489       .  S
C932        H937   1.089       .  S
C932        C933   1.344       .  D
C938        C939   1.532       .  S
C938        C944   1.519       .  S
C938        C942   1.543       .  S
C939        H946   1.087       .  S
C939        C940   1.359       .  D
C940        C941   1.553       .  S
C941        C945   1.542       .  S
C941        C943   1.556       .  S
C941        H947   1.111       .  S
C942        H948   1.086       .  S
C942        C943   1.373       .  D
C943        C983   1.491       .  S
C944        H949   1.089       .  S
C944        C945   1.348       .  D
C950       C1196   1.492       .  S
C950        C951   1.536       .  S
C950        C956   1.517       .  S
C950        C954   1.544       .  S
C951        H958   1.086       .  S
C951        C952   1.360       .  D
C952       C1047   1.484       .  S
C952        C953   1.556       .  S
C953        C957   1.545       .  S
C953        C955   1.554       .  S
C953        H959   1.111       .  S
C954        H960   1.086       .  S
C954        C955   1.374       .  D
C955        C977   1.493       .  S
C956        H961   1.089       .  S
C956        C957   1.348       .  D
O962        C978   1.277       .  A
O962       Zn968   2.058   1_554  S
C963        O979   1.276       .  A
C963        O976   1.276       .  A
O964        C977   1.283       .  A
O964       Cd971   2.125   1_545  S
O965        C983   1.273       .  A
O965       Cd974   2.064       .  S
O966        C980   1.276       .  A
O966       Cd970   2.093   1_465  S
O967        C978   1.274       .  A
O967       Cd970   2.076       .  S
Zn968       O979   2.035   1_655  S
Zn968       O981   2.015       .  S
Zn968       O973   1.961   1_655  S
O969        C980   1.276       .  A
O969       Cd974   2.082   1_554  S
Cd970       O972   2.046   1_545  S
Cd970       O973   2.005   1_654  S
Cd971       O975   2.129   1_556  S
Cd971       O984   2.125   1_655  S
Cd971       O973   2.035   1_665  S
O972        C982   1.271       .  A
O973       Cd974   2.011   1_545  S
Cd974       O976   2.090   1_565  S
O975        C982   1.283       .  A
C977        O981   1.273       .  A
C983        O984   1.283       .  A
O985       C1001   1.279       .  A
O985       Zn991   1.999       .  S
C986       O1002   1.272       .  A
C986        O999   1.277       .  A
C986       C1095   1.483       .  S
O987       C1000   1.284       .  A
O987       Cd994   2.085       .  S
O988       C1006   1.269       .  A
O988       Cd997   2.040       .  S
O989       C1003   1.277       .  A
O989       Cd993   2.060   1_554  S
O990       C1001   1.280       .  A
O990       Cd993   2.072       .  S
Zn991      O1002   2.028   1_556  S
Zn991      O1004   1.985       .  S
Zn991       O996   1.879       .  S
O992       C1003   1.276       .  A
O992       Cd997   2.050       .  S
Cd993       O995   2.128       .  S
Cd993       O996   1.971       .  S
Cd994       O998   2.060       .  S
Cd994      O1007   2.088   1_556  S
Cd994       O996   1.940       .  S
O995       C1005   1.285       .  A
O996       Cd997   1.940   1_556  S
Cd997       O999   2.105       .  S
O998       C1005   1.272       .  A
C1000      O1004   1.271       .  A
C1000      C1073   1.466       .  S
C1006      O1007   1.283       .  A
O1008      C1024   1.278       .  A
O1008     Zn1014   2.000       .  S
C1009      O1025   1.271       .  A
C1009      O1022   1.279       .  A
O1010      C1023   1.285       .  A
O1010     Cd1017   2.091       .  S
O1011      C1029   1.270       .  A
O1011     Cd1020   2.049       .  S
O1012      C1026   1.277       .  A
O1012     Cd1016   2.058       .  S
O1013      C1024   1.280       .  A
O1013     Cd1016   2.071       .  S
Zn1014     O1025   2.019       .  S
Zn1014     O1027   1.977       .  S
Zn1014     O1019   1.879       .  S
O1015      C1026   1.278       .  A
O1015     Cd1020   2.055       .  S
Cd1016     O1018   2.130       .  S
Cd1016     O1019   1.970       .  S
Cd1017     O1021   2.049       .  S
Cd1017     O1030   2.090       .  S
Cd1017     O1019   1.938       .  S
O1018      C1028   1.285       .  A
O1019     Cd1020   1.939       .  S
Cd1020     O1022   2.119       .  S
O1021      C1028   1.271       .  A
C1023      O1027   1.270       .  A
C1028      C1059   1.489       .  S
C1029      O1030   1.284       .  A
C1029      C1085   1.457       .  S
O1031      C1047   1.271       .  A
O1031     Zn1037   2.021   1_655  S
C1032      O1048   1.279       .  A
C1032      O1045   1.279       .  A
O1033      C1046   1.283       .  A
O1033     Cd1040   2.074       .  S
O1034      C1052   1.284       .  A
O1034     Cd1043   2.122       .  S
O1035      C1049   1.279       .  A
O1035     Cd1039   2.058       .  S
O1036      C1047   1.279       .  A
O1036     Cd1039   2.115       .  S
Zn1037     O1048   2.002       .  S
Zn1037     O1050   1.978       .  S
Zn1037     O1042   1.878       .  S
O1038      C1049   1.275       .  A
O1038     Cd1043   2.048   1_655  S
Cd1039     O1041   2.048       .  S
Cd1039     O1042   1.938   1_655  S
Cd1040     O1044   2.078   1_455  S
Cd1040     O1053   2.056       .  S
Cd1040     O1042   1.936       .  S
O1041      C1051   1.270       .  A
O1042     Cd1043   1.966       .  S
Cd1043     O1045   2.065       .  S
O1044      C1051   1.281       .  A
C1046      O1050   1.270       .  A
C1051      C1061   1.455       .  S
C1052      O1053   1.271       .  A
C1052      C1068   1.488       .  S
C1054      C1055   1.545       .  S
C1054      C1060   1.519       .  S
C1054      C1058   1.541       .  S
C1055      H1062   1.086       .  S
C1055      C1056   1.373       .  D
C1056      C1147   1.490       .  S
C1056      C1057   1.551       .  S
C1057      C1061   1.537       .  S
C1057      C1059   1.554       .  S
C1057      H1063   1.110       .  S
C1058      H1064   1.086       .  S
C1058      C1059   1.365       .  D
C1060      H1065   1.090       .  S
C1060      C1061   1.342       .  D
C1066      C1067   1.537       .  S
C1066      C1072   1.522       .  S
C1066      C1070   1.542       .  S
C1067      H1074   1.086       .  S
C1067      C1068   1.366       .  D
C1068      C1069   1.556       .  S
C1069      C1073   1.539       .  S
C1069      C1071   1.544       .  S
C1069      H1075   1.111       .  S
C1070      H1076   1.086       .  S
C1070      C1071   1.368       .  D
C1071      C1144   1.473       .  S
C1072      H1077   1.089       .  S
C1072      C1073   1.349       .  D
C1078      C1079   1.536       .  S
C1078      C1084   1.516       .  S
C1078      C1082   1.545       .  S
C1079      H1086   1.086       .  S
C1079      C1080   1.361       .  D
C1080      C1081   1.555       .  S
C1081      C1085   1.546       .  S
C1081      C1083   1.549       .  S
C1081      H1087   1.111       .  S
C1082      H1088   1.086       .  S
C1082      C1083   1.374       .  D
C1083      C1127   1.483       .  S
C1084      H1089   1.090       .  S
C1084      C1085   1.343       .  D
C1090      C1091   1.543       .  S
C1090      C1096   1.519       .  S
C1090      C1094   1.536       .  S
C1091      H1098   1.086       .  S
C1091      C1092   1.373       .  D
C1092      C1146   1.489       .  S
C1092      C1093   1.552       .  S
C1093      C1097   1.543       .  S
C1093      C1095   1.554       .  S
C1093      H1099   1.111       .  S
C1094      H1100   1.086       .  S
C1094      C1095   1.361       .  D
C1096      H1101   1.089       .  S
C1096      C1097   1.348       .  D
C1102      C1103   1.547       .  S
C1102      C1108   1.520       .  S
C1102      C1106   1.541       .  S
C1103      H1110   1.086       .  S
C1103      C1104   1.375       .  D
C1104      C1141   1.489       .  S
C1104      C1105   1.549       .  S
C1105      C1109   1.536       .  S
C1105      C1107   1.552       .  S
C1105      H1111   1.110       .  S
C1106      H1112   1.086       .  S
C1106      C1107   1.366       .  D
C1108      H1113   1.089       .  S
C1108      C1109   1.345       .  D
C1114      C1115   1.535       .  S
C1114      C1120   1.517       .  S
C1114      C1118   1.541       .  S
C1115      H1122   1.086       .  S
C1115      C1116   1.362       .  D
C1116      C1117   1.555       .  S
C1117      C1121   1.542       .  S
C1117      C1119   1.549       .  S
C1117      H1123   1.111       .  S
C1118      H1124   1.086       .  S
C1118      C1119   1.370       .  D
C1119      C1142   1.480       .  S
C1120      H1125   1.090       .  S
C1120      C1121   1.345       .  D
O1126      C1142   1.277       .  A
O1126     Zn1132   2.048   1_455  S
C1127      O1143   1.279       .  A
C1127      O1140   1.274       .  A
O1128      C1141   1.282       .  A
O1128     Cd1135   2.123       .  S
O1129      C1147   1.272       .  A
O1129     Cd1138   2.058       .  S
O1130      C1144   1.275       .  A
O1130     Cd1134   2.075   1_556  S
O1131      C1142   1.275       .  A
O1131     Cd1134   2.090       .  S
Zn1132     O1143   2.070   1_554  S
Zn1132     O1145   2.006       .  S
Zn1132     O1137   1.958   1_655  S
O1133      C1144   1.275       .  A
O1133     Cd1138   2.086   1_455  S
Cd1134     O1136   2.055       .  S
Cd1134     O1137   2.008       .  S
Cd1135     O1139   2.125   1_655  S
Cd1135     O1148   2.126   1_554  S
Cd1135     O1137   2.040   1_655  S
O1136      C1146   1.272       .  A
O1137     Cd1138   2.006   1_454  S
Cd1138     O1140   2.075       .  S
O1139      C1146   1.283       .  A
C1141      O1145   1.273       .  A
C1147      O1148   1.282       .  A
O1149      C1165   1.271       .  A
O1149     Zn1155   2.022       .  S
C1150      O1166   1.279       .  A
C1150      O1163   1.279       .  A
O1151      C1164   1.283       .  A
O1151     Cd1158   2.081       .  S
O1152      C1170   1.284       .  A
O1152     Cd1161   2.122       .  S
O1153      C1167   1.277       .  A
O1153     Cd1157   2.060       .  S
O1154      C1165   1.278       .  A
O1154     Cd1157   2.108       .  S
Zn1155     O1166   2.001       .  S
Zn1155     O1168   1.983       .  S
Zn1155     O1160   1.875       .  S
O1156      C1167   1.276       .  A
O1156     Cd1161   2.051       .  S
Cd1157     O1159   2.046       .  S
Cd1157     O1160   1.942       .  S
Cd1158     O1162   2.078       .  S
Cd1158     O1171   2.054       .  S
Cd1158     O1160   1.939       .  S
O1159      C1169   1.270       .  A
O1160     Cd1161   1.965       .  S
Cd1161     O1163   2.065       .  S
O1162      C1169   1.282       .  A
C1164      O1168   1.271       .  A
C1164      C1261   1.464       .  S
C1165      C1268   1.482       .  S
C1170      O1171   1.271       .  A
O1172      C1188   1.279       .  A
O1172     Zn1178   1.997       .  S
C1173      O1189   1.271       .  A
C1173      O1186   1.279       .  A
C1173      C1223   1.484       .  S
O1174      C1187   1.283       .  A
O1174     Cd1181   2.076       .  S
O1175      C1193   1.270       .  A
O1175     Cd1184   2.047       .  S
O1176      C1190   1.276       .  A
O1176     Cd1180   2.051       .  S
O1177      C1188   1.278       .  A
O1177     Cd1180   2.056       .  S
Zn1178     O1189   2.022       .  S
Zn1178     O1191   1.976       .  S
Zn1178     O1183   1.872       .  S
O1179      C1190   1.278       .  A
O1179     Cd1184   2.057       .  S
Cd1180     O1182   2.121       .  S
Cd1180     O1183   1.964       .  S
Cd1181     O1185   2.058       .  S
Cd1181     O1194   2.079       .  S
Cd1181     O1183   1.929       .  S
O1182      C1192   1.284       .  A
O1183     Cd1184   1.934       .  S
Cd1184     O1186   2.115       .  S
O1185      C1192   1.272       .  A
C1187      O1191   1.270       .  A
C1187      C1249   1.460       .  S
C1193      O1194   1.282       .  A
O1195      C1211   1.270       .  A
O1195     Zn1201   2.013   1_565  S
C1196      O1212   1.278       .  A
C1196      O1209   1.278       .  A
O1197      C1210   1.285       .  A
O1197     Cd1204   2.086       .  S
O1198      C1216   1.284       .  A
O1198     Cd1207   2.125       .  S
O1199      C1213   1.280       .  A
O1199     Cd1203   2.065       .  S
O1200      C1211   1.280       .  A
O1200     Cd1203   2.120       .  S
Zn1201     O1212   2.000       .  S
Zn1201     O1214   1.967       .  S
Zn1201     O1206   1.885       .  S
O1202      C1213   1.275       .  A
O1202     Cd1207   2.047   1_565  S
Cd1203     O1205   2.054       .  S
Cd1203     O1206   1.941   1_565  S
Cd1204     O1208   2.092   1_545  S
Cd1204     O1217   2.066       .  S
Cd1204     O1206   1.936       .  S
O1205      C1215   1.271       .  A
O1206     Cd1207   1.968       .  S
Cd1207     O1209   2.057       .  S
O1208      C1215   1.283       .  A
C1210      O1214   1.269       .  A
C1215      C1237   1.461       .  S
C1216      O1217   1.273       .  A
C1216      C1244   1.493       .  S
C1218      C1219   1.542       .  S
C1218      C1224   1.517       .  S
C1218      C1222   1.537       .  S
C1219      H1226   1.086       .  S
C1219      C1220   1.371       .  D
C1220      C1308   1.479       .  S
C1220      C1221   1.548       .  S
C1221      C1225   1.547       .  S
C1221      C1223   1.556       .  S
C1221      H1227   1.111       .  S
C1222      H1228   1.086       .  S
C1222      C1223   1.363       .  D
C1224      H1229   1.089       .  S
C1224      C1225   1.348       .  D
C1230      C1231   1.542       .  S
C1230      C1236   1.520       .  S
C1230      C1234   1.533       .  S
C1231      H1238   1.086       .  S
C1231      C1232   1.370       .  D
C1232      C1306   1.481       .  S
C1232      C1233   1.551       .  S
C1233      C1237   1.546       .  S
C1233      C1235   1.554       .  S
C1233      H1239   1.111       .  S
C1234      H1240   1.087       .  S
C1234      C1235   1.361       .  D
C1236      H1241   1.089       .  S
C1236      C1237   1.348       .  D
C1242      C1243   1.543       .  S
C1242      C1248   1.520       .  S
C1242      C1246   1.547       .  S
C1243      H1250   1.086       .  S
C1243      C1244   1.368       .  D
C1244      C1245   1.552       .  S
C1245      C1249   1.535       .  S
C1245      C1247   1.549       .  S
C1245      H1251   1.110       .  S
C1246      H1252   1.086       .  S
C1246      C1247   1.373       .  D
C1247      C1310   1.488       .  S
C1248      H1253   1.089       .  S
C1248      C1249   1.346       .  D
C1254      C1255   1.540       .  S
C1254      C1260   1.522       .  S
C1254      C1258   1.538       .  S
C1255      H1262   1.086       .  S
C1255      C1256   1.367       .  D
C1256      C1291   1.471       .  S
C1256      C1257   1.543       .  S
C1257      C1261   1.538       .  S
C1257      C1259   1.555       .  S
C1257      H1263   1.111       .  S
C1258      H1264   1.086       .  S
C1258      C1259   1.367       .  D
C1260      H1265   1.089       .  S
C1260      C1261   1.349       .  D
C1266      C1267   1.535       .  S
C1266      C1272   1.518       .  S
C1266      C1270   1.545       .  S
C1267      H1274   1.086       .  S
C1267      C1268   1.361       .  D
C1268      C1269   1.554       .  S
C1269      C1273   1.543       .  S
C1269      C1271   1.554       .  S
C1269      H1275   1.111       .  S
C1270      H1276   1.086       .  S
C1270      C1271   1.374       .  D
C1271      C1305   1.494       .  S
C1272      H1277   1.089       .  S
C1272      C1273   1.349       .  D
C1278      C1279   1.535       .  S
C1278      C1284   1.516       .  S
C1278      C1282   1.544       .  S
C1279      H1286   1.086       .  S
C1279      C1280   1.359       .  D
C1280      C1281   1.554       .  S
C1281      C1285   1.543       .  S
C1281      C1283   1.557       .  S
C1281      H1287   1.110       .  S
C1282      H1288   1.086       .  S
C1282      C1283   1.374       .  D
C1283      C1311   1.493       .  S
C1284      H1289   1.090       .  S
C1284      C1285   1.343       .  D
O1290      C1306   1.278       .  A
O1290     Zn1296   2.062       .  S
C1291      O1307   1.275       .  A
C1291      O1304   1.274       .  A
O1292      C1305   1.283   1_545  A
O1292     Cd1299   2.130       .  S
O1293      C1311   1.272       .  A
O1293     Cd1302   2.059       .  S
O1294      C1308   1.276       .  A
O1294     Cd1298   2.099       .  S
O1295      C1306   1.274       .  A
O1295     Cd1298   2.077   1_565  S
Zn1296     O1307   2.029       .  S
Zn1296     O1309   2.012       .  S
Zn1296     O1301   1.959   1_565  S
O1297      C1308   1.275       .  A
O1297     Cd1302   2.079       .  S
Cd1298     O1300   2.044       .  S
Cd1298     O1301   2.006       .  S
Cd1299     O1303   2.131       .  S
Cd1299     O1312   2.135       .  S
Cd1299     O1301   2.038       .  S
O1300      C1310   1.271       .  A
O1301     Cd1302   2.009       .  S
Cd1302     O1304   2.079   1_545  S
O1303      C1310   1.283       .  A
C1305      O1309   1.273       .  A
C1311      O1312   1.285       .  A
