geometry optimzed in LAMMPS
_audit_creation_date              2020-11-30 
_audit_creation_method            'lammps2cif' 
_symmetry_space_group_name_H-M    'P1' 
_symmetry_Int_Tables_number       1 
_symmetry_cell_setting            triclinic 
loop_ 
_symmetry_equiv_pos_as_xyz 
  x,y,z 
_cell_length_a                    45.49595789 
_cell_length_b                    35.34727672416708 
_cell_length_c                    35.254023511302734 
_cell_angle_alpha                 89.99955347703217 
_cell_angle_beta                  89.99979201974203 
_cell_angle_gamma                 89.99326553333442 
loop_ 
_atom_site_label 
_atom_site_type_symbol 
_atom_site_fract_x 
_atom_site_fract_y 
_atom_site_fract_z 
_atom_site_charge 
N1          N  0.46676701  0.45609309  0.07104230    -0.06100
N2          N  0.44507703  0.45039929  0.09527961    -0.58200
N3          N  0.03444581  0.42976145  0.04463113    -0.05800
N4          N  0.05613083  0.40557434  0.05030714    -0.60300
N5          N  0.03445315  0.45608096  0.07103886    -0.05400
N6          N  0.05614596  0.45038423  0.09527141    -0.58200
N7          N  0.46677119  0.42977491  0.04463309    -0.05100
N8          N  0.44508768  0.40559277  0.05031264    -0.60700
C9          C  0.43179369  0.41896856  0.08183223     0.96100
C10         C  0.06942756  0.41894989  0.08182280     0.95900
N11         N  0.03445306  0.45607985  0.42895822    -0.06300
N12         N  0.05614553  0.45038266  0.40472544    -0.58800
N13         N  0.46677085  0.42977401  0.45536537    -0.04400
N14         N  0.44508764  0.40559166  0.44968625    -0.60100
N15         N  0.46676665  0.45609213  0.42895557    -0.06300
N16         N  0.44507694  0.45039786  0.40471835    -0.59100
N17         N  0.03444570  0.42976052  0.45536656    -0.04000
N18         N  0.05613039  0.40557324  0.44969085    -0.60100
Mn19       Mn  0.50060816  0.42855090  0.99999904     1.18400
C20         C  0.06942709  0.41894829  0.41817448     0.98200
C21         C  0.43179363  0.41896699  0.41816621     0.98800
N22         N  0.03446111  0.04513643  0.07104144    -0.06300
N23         N  0.05615077  0.05083076  0.09527886    -0.62600
N24         N  0.46678206  0.07146782  0.04463033    -0.05100
N25         N  0.44509727  0.09565512  0.05030604    -0.63300
N26         N  0.46677475  0.04514856  0.07103869    -0.05800
N27         N  0.44508215  0.05084563  0.09527143    -0.62900
N28         N  0.03445683  0.07145441  0.04463169    -0.04700
N29         N  0.05614010  0.09563698  0.05031095    -0.63600
Mn30       Mn  0.00061403  0.00061472  0.07227152     1.10700
C31         C  0.06943397  0.08226167  0.08183094     0.99400
C32         C  0.43180058  0.08227998  0.08182236     0.99500
N33         N  0.46677467  0.04514760  0.42895800    -0.05900
N34         N  0.44508197  0.05084437  0.40472530    -0.61200
N35         N  0.03445677  0.07145347  0.45536391    -0.05200
N36         N  0.05614029  0.09563531  0.44968449    -0.58000
N37         N  0.03446089  0.04513516  0.42895453    -0.06500
N38         N  0.05615100  0.05082891  0.40471756    -0.60800
N39         N  0.46678201  0.07146709  0.45536558    -0.05500
N40         N  0.44509717  0.09565429  0.44968963    -0.58000
Mn41       Mn  0.00061380  0.00061371  0.42772540     1.20200
Mn42       Mn  0.00061958  0.07267753  0.99999784     1.10100
Cl43       Cl  0.00061389  0.00061420  0.99999847    -0.85900
C44         C  0.43180048  0.08227878  0.41817384     0.96400
C45         C  0.06943446  0.08225952  0.41816492     0.96200
N46         N  0.28446075  0.29513618  0.32104186    -0.06100
N47         N  0.30615052  0.30083044  0.34527901    -0.58200
N48         N  0.21678122  0.32146653  0.29463153    -0.05800
N49         N  0.19509610  0.34565303  0.30030747    -0.60300
N50         N  0.21677426  0.29514686  0.32103946    -0.05400
N51         N  0.19508169  0.30084291  0.34527217    -0.58200
N52         N  0.28445609  0.32145466  0.29463255    -0.05100
N53         N  0.30613909  0.34563739  0.30031184    -0.60700
C54         C  0.31943333  0.33226177  0.33183149     0.96100
C55         C  0.18179947  0.33227716  0.33182364     0.95900
N56         N  0.21677389  0.29514834  0.17895881    -0.06300
N57         N  0.19508127  0.30084513  0.15472617    -0.58800
N58         N  0.28445561  0.32145508  0.20536469    -0.04400
N59         N  0.30613875  0.34563790  0.19968545    -0.60100
N60         N  0.28446003  0.29513740  0.17895523    -0.06300
N61         N  0.30614990  0.30083200  0.15471779    -0.59100
N62         N  0.21678096  0.32146730  0.20536676    -0.04000
N63         N  0.19509603  0.34565431  0.19969118    -0.60100
Mn64       Mn  0.25061872  0.32267771  0.24999892     1.18400
C65         C  0.18179943  0.33227919  0.16817505     0.98200
C66         C  0.31943278  0.33226275  0.16816561     0.98800
N67         N  0.21676773  0.20609138  0.32104191    -0.06300
N68         N  0.19507808  0.20039672  0.34527931    -0.62600
N69         N  0.28444690  0.17976151  0.29463011    -0.05100
N70         N  0.30613188  0.15557464  0.30030564    -0.63300
N71         N  0.28445391  0.20608069  0.32103810    -0.05800
N72         N  0.30614667  0.20038383  0.34527067    -0.62900
N73         N  0.21677221  0.17977374  0.29463229    -0.04700
N74         N  0.19508914  0.15559092  0.30031170    -0.63600
Mn75       Mn  0.25061421  0.25061376  0.32227145     1.10700
C76         C  0.18179511  0.16896582  0.33183154     0.99400
C77         C  0.31942848  0.16894989  0.33182174     0.99500
N78         N  0.28445341  0.20608186  0.17895743    -0.06900
N79         N  0.30614595  0.20038569  0.15472447    -0.61200
N80         N  0.21677158  0.17977440  0.20536450    -0.05200
N81         N  0.19508842  0.15559176  0.19968532    -0.58000
N82         N  0.21676694  0.20609274  0.17895512    -0.06500
N83         N  0.19507707  0.20039868  0.15471813    -0.60800
N84         N  0.28444650  0.17976226  0.20536525    -0.05500
N85         N  0.30613153  0.15557558  0.19968924    -0.58000
Mn86       Mn  0.25061355  0.25061510  0.17772550     1.20200
Mn87       Mn  0.25060904  0.17855119  0.24999806     1.10100
Cl88       Cl  0.25061389  0.25061443  0.24999847    -0.85900
C89         C  0.31942805  0.16895139  0.16817307     0.96400
C90         C  0.18179408  0.16896746  0.16816580     0.96200
C91         C  0.15739913  0.15073252  0.14993292    -0.18500
C92         C  0.13729792  0.13495580  0.13425844     0.05600
C93         C  0.11392987  0.11627355  0.11573871     0.07400
C94         C  0.09382865  0.10049677  0.10006406    -0.19300
C95         C  0.15740037  0.15073051  0.35006460    -0.18500
C96         C  0.13729918  0.13495338  0.36573883     0.05600
C97         C  0.11393110  0.11627065  0.38425790     0.07400
C98         C  0.09382955  0.10049382  0.39993211    -0.19300
C99         C  0.15740211  0.35051375  0.14994612    -0.18500
C100        C  0.13729866  0.36628102  0.13426485     0.05600
C101        C  0.11392861  0.38494826  0.11573309     0.07400
C102        C  0.09382487  0.40071567  0.10005171    -0.19300
C103        C  0.40740326  0.10051464  0.10005103    -0.18500
C104        C  0.38729954  0.11628251  0.11573191     0.05600
C105        C  0.36392922  0.13495005  0.13426296     0.07400
C106        C  0.34382553  0.15071748  0.14994394    -0.19300
C107        C  0.34382811  0.35049685  0.35006446    -0.18500
C108        C  0.36392936  0.36627346  0.36573901     0.05600
C109        C  0.38729743  0.38495551  0.38425881     0.07400
C110        C  0.40739881  0.40073214  0.39993338    -0.19300
C111        C  0.40740314  0.10051314  0.39994491    -0.18500
C112        C  0.38729955  0.11628066  0.38426360     0.05600
C113        C  0.36392940  0.13494794  0.36573187     0.07400
C114        C  0.34382582  0.15071539  0.35005056    -0.19300
C115        C  0.09382429  0.40071361  0.39994575    -0.18500
C116        C  0.11392792  0.38494578  0.38426475     0.05600
C117        C  0.13729819  0.36627829  0.36573367     0.07400
C118        C  0.15740194  0.35051091  0.35005262    -0.19300
C119        C  0.34382765  0.35049794  0.14993275    -0.18500
C120        C  0.36392891  0.36627500  0.13425863     0.05600
C121        C  0.38729715  0.38495740  0.11573939     0.07400
C122        C  0.40739863  0.40073415  0.10006521    -0.19300
N123        N  0.46676697  0.45609316  0.57104233    -0.06100
N124        N  0.44507704  0.45039932  0.59527960    -0.58200
N125        N  0.03444581  0.42976131  0.54463115    -0.05800
N126        N  0.05613074  0.40557432  0.55030708    -0.60300
N127        N  0.03445322  0.45608096  0.57103886    -0.05400
N128        N  0.05614592  0.45038424  0.59527131    -0.58200
N129        N  0.46677115  0.42977493  0.54463304    -0.05100
N130        N  0.44508770  0.40559281  0.55031268    -0.60700
C131        C  0.43179364  0.41896854  0.58183230     0.96100
C132        C  0.06942757  0.41894986  0.58182284     0.95900
N133        N  0.03445304  0.45607986  0.92895820    -0.06300
N134        N  0.05614554  0.45038272  0.90472541    -0.58800
N135        N  0.46677090  0.42977417  0.95536528    -0.04400
N136        N  0.44508759  0.40559165  0.94968621    -0.60100
N137        N  0.46676666  0.45609206  0.92895561    -0.06300
N138        N  0.44507692  0.45039792  0.90471829    -0.59100
N139        N  0.03444572  0.42976059  0.95536655    -0.04000
N140        N  0.05613045  0.40557329  0.94969077    -0.60100
Mn141      Mn  0.50060817  0.42855091  0.49999908     1.18400
C142        C  0.06942707  0.41894837  0.91817444     0.98200
C143        C  0.43179367  0.41896708  0.91816627     0.98800
N144        N  0.03446107  0.04513641  0.57104138    -0.06300
N145        N  0.05615077  0.05083076  0.59527876    -0.62600
N146        N  0.46678200  0.07146774  0.54463036    -0.05100
N147        N  0.44509727  0.09565506  0.55030588    -0.63300
N148        N  0.46677468  0.04514863  0.57103860    -0.05800
N149        N  0.44508210  0.05084565  0.59527137    -0.62900
N150        N  0.03445688  0.07145434  0.54463158    -0.04700
N151        N  0.05614010  0.09563700  0.55031087    -0.63600
Mn152      Mn  0.00061399  0.00061475  0.57227147     1.10700
C153        C  0.06943394  0.08226165  0.58183080     0.99400
C154        C  0.43180056  0.08227995  0.58182229     0.99500
N155        N  0.46677464  0.04514763  0.92895797    -0.05900
N156        N  0.44508202  0.05084435  0.90472539    -0.61200
N157        N  0.03445669  0.07145340  0.95536394    -0.05200
N158        N  0.05614033  0.09563542  0.94968453    -0.58000
N159        N  0.03446093  0.04513529  0.92895471    -0.06500
N160        N  0.05615096  0.05082890  0.90471756    -0.60800
N161        N  0.46678200  0.07146706  0.95536559    -0.05500
N162        N  0.44509719  0.09565424  0.94968969    -0.58000
Mn163      Mn  0.00061381  0.00061372  0.92772542     1.20200
Mn164      Mn  0.00061965  0.07267755  0.49999776     1.10100
Cl165      Cl  0.00061389  0.00061424  0.49999845    -0.85900
C166        C  0.43180036  0.08227880  0.91817381     0.96400
C167        C  0.06943440  0.08225954  0.91816503     0.96200
N168        N  0.28446064  0.29513614  0.82104184    -0.06100
N169        N  0.30615060  0.30083048  0.84527914    -0.58200
N170        N  0.21678126  0.32146640  0.79463167    -0.05800
N171        N  0.19509603  0.34565314  0.80030752    -0.60300
N172        N  0.21677431  0.29514697  0.82103932    -0.05400
N173        N  0.19508163  0.30084295  0.84527222    -0.58200
N174        N  0.28445607  0.32145454  0.79463252    -0.05100
N175        N  0.30613912  0.34563741  0.80031187    -0.60700
C176        C  0.31943330  0.33226172  0.83183150     0.96100
C177        C  0.18179965  0.33227707  0.83182356     0.95900
N178        N  0.21677387  0.29514827  0.67895887    -0.06300
N179        N  0.19508128  0.30084511  0.65472618    -0.58800
N180        N  0.28445557  0.32145504  0.70536473    -0.04400
N181        N  0.30613879  0.34563784  0.69968544    -0.60100
N182        N  0.28446006  0.29513748  0.67895521    -0.06300
N183        N  0.30614984  0.30083197  0.65471780    -0.59100
N184        N  0.21678097  0.32146738  0.70536684    -0.04000
N185        N  0.19509595  0.34565436  0.69969114    -0.60100
Mn186      Mn  0.25061864  0.32267772  0.74999893     1.18400
C187        C  0.18179943  0.33227918  0.66817513     0.98200
C188        C  0.31943276  0.33226279  0.66816566     0.98800
N189        N  0.21676780  0.20609148  0.82104190    -0.06300
N190        N  0.19507797  0.20039663  0.84527940    -0.62600
N191        N  0.28444683  0.17976158  0.79463007    -0.05100
N192        N  0.30613187  0.15557464  0.80030567    -0.63300
N193        N  0.28445398  0.20608062  0.82103807    -0.05800
N194        N  0.30614661  0.20038383  0.84527066    -0.62900
N195        N  0.21677217  0.17977365  0.79463222    -0.04700
N196        N  0.19508910  0.15559082  0.80031171    -0.63600
Mn197      Mn  0.25061421  0.25061375  0.82227152     1.10700
C198        C  0.18179516  0.16896582  0.83183164     0.99400
C199        C  0.31942851  0.16894977  0.83182170     0.99500
N200        N  0.28445342  0.20608195  0.67895733    -0.06900
N201        N  0.30614597  0.20038568  0.65472449    -0.61200
N202        N  0.21677151  0.17977443  0.70536444    -0.05200
N203        N  0.19508840  0.15559171  0.69968529    -0.58000
N204        N  0.21676697  0.20609276  0.67895520    -0.06500
N205        N  0.19507697  0.20039867  0.65471809    -0.60800
N206        N  0.28444647  0.17976226  0.70536538    -0.05500
N207        N  0.30613156  0.15557557  0.69968921    -0.58000
Mn208      Mn  0.25061357  0.25061515  0.67772544     1.20200
Mn209      Mn  0.25060901  0.17855114  0.74999799     1.10100
Cl210      Cl  0.25061388  0.25061443  0.74999846    -0.85900
C211        C  0.31942796  0.16895141  0.66817304     0.96400
C212        C  0.18179413  0.16896752  0.66816575     0.96200
C213        C  0.15739917  0.15073251  0.64993285    -0.18500
C214        C  0.13729791  0.13495586  0.63425839     0.05600
C215        C  0.11392989  0.11627357  0.61573863     0.07400
C216        C  0.09382870  0.10049679  0.60006395    -0.19300
C217        C  0.15740044  0.15073055  0.85006454    -0.18500
C218        C  0.13729919  0.13495328  0.86573881     0.05600
C219        C  0.11393103  0.11627065  0.88425799     0.07400
C220        C  0.09382958  0.10049395  0.89993211    -0.19300
C221        C  0.15740214  0.35051363  0.64994620    -0.18500
C222        C  0.13729863  0.36628103  0.63426484     0.05600
C223        C  0.11392852  0.38494818  0.61573301     0.07400
C224        C  0.09382489  0.40071563  0.60005161    -0.19300
C225        C  0.40740319  0.10051463  0.60005103    -0.18500
C226        C  0.38729953  0.11628235  0.61573188     0.05600
C227        C  0.36392926  0.13495004  0.63426289     0.07400
C228        C  0.34382546  0.15071754  0.64994396    -0.19300
C229        C  0.34382809  0.35049681  0.85006451    -0.18500
C230        C  0.36392942  0.36627344  0.86573907     0.05600
C231        C  0.38729751  0.38495563  0.88425882     0.07400
C232        C  0.40739877  0.40073216  0.89993328    -0.19300
C233        C  0.40740317  0.10051318  0.89994494    -0.18500
C234        C  0.38729955  0.11628055  0.88426345     0.05600
C235        C  0.36392942  0.13494794  0.86573185     0.07400
C236        C  0.34382592  0.15071537  0.85005058    -0.19300
C237        C  0.09382432  0.40071369  0.89994567    -0.18500
C238        C  0.11392802  0.38494585  0.88426466     0.05600
C239        C  0.13729825  0.36627833  0.86573358     0.07400
C240        C  0.15740190  0.35051101  0.85005267    -0.19300
C241        C  0.34382772  0.35049801  0.64993275    -0.18500
C242        C  0.36392896  0.36627487  0.63425871     0.05600
C243        C  0.38729716  0.38495739  0.61573960     0.07400
C244        C  0.40739865  0.40073422  0.60006518    -0.19300
N245        N  0.46676699  0.95609306  0.07104226    -0.06100
N246        N  0.44507703  0.95039928  0.09527965    -0.58200
N247        N  0.03444584  0.92976141  0.04463126    -0.05800
N248        N  0.05613071  0.90557435  0.05030708    -0.60300
N249        N  0.03445323  0.95608088  0.07103885    -0.05400
N250        N  0.05614588  0.95038423  0.09527135    -0.58200
N251        N  0.46677121  0.92977502  0.04463306    -0.05100
N252        N  0.44508766  0.90559278  0.05031265    -0.60700
C253        C  0.43179375  0.91896856  0.08183215     0.96100
C254        C  0.06942751  0.91894989  0.08182285     0.95900
N255        N  0.03445301  0.95607980  0.42895824    -0.06300
N256        N  0.05614555  0.95038270  0.40472540    -0.58800
N257        N  0.46677091  0.92977411  0.45536543    -0.04400
N258        N  0.44508754  0.90559164  0.44968621    -0.60100
N259        N  0.46676664  0.95609209  0.42895555    -0.06300
N260        N  0.44507691  0.95039790  0.40471834    -0.59100
N261        N  0.03444570  0.92976062  0.45536654    -0.04000
N262        N  0.05613043  0.90557321  0.44969082    -0.60100
Mn263      Mn  0.50060823  0.92855097  0.99999908     1.18400
C264        C  0.06942706  0.91894834  0.41817448     0.98200
C265        C  0.43179361  0.91896700  0.41816630     0.98800
N266        N  0.03446108  0.54513634  0.07104150    -0.06300
N267        N  0.05615079  0.55083076  0.09527886    -0.62600
N268        N  0.46678202  0.57146783  0.04463038    -0.05100
N269        N  0.44509731  0.59565512  0.05030598    -0.63300
N270        N  0.46677471  0.54514858  0.07103861    -0.05800
N271        N  0.44508212  0.55084566  0.09527141    -0.62900
N272        N  0.03445689  0.57145442  0.04463164    -0.04700
N273        N  0.05614009  0.59563695  0.05031093    -0.63600
Mn274      Mn  0.00061400  0.50061474  0.07227152     1.10700
C275        C  0.06943397  0.58226165  0.08183095     0.99400
C276        C  0.43180058  0.58227998  0.08182234     0.99500
N277        N  0.46677461  0.54514753  0.42895790    -0.05900
N278        N  0.44508205  0.55084437  0.40472532    -0.61200
N279        N  0.03445677  0.57145349  0.45536386    -0.05200
N280        N  0.05614027  0.59563535  0.44968452    -0.58000
N281        N  0.03446088  0.54513521  0.42895460    -0.06500
N282        N  0.05615102  0.55082895  0.40471752    -0.60800
N283        N  0.46678203  0.57146715  0.45536568    -0.05500
N284        N  0.44509715  0.59565428  0.44968961    -0.58000
Mn285      Mn  0.00061385  0.50061371  0.42772539     1.20200
Mn286      Mn  0.00061961  0.57267749  0.99999782     1.10100
Cl287      Cl  0.00061390  0.50061423  0.99999848    -0.85900
C288        C  0.43180044  0.58227891  0.41817381     0.96400
C289        C  0.06943440  0.58225947  0.41816497     0.96200
N290        N  0.28446075  0.79513625  0.32104185    -0.06100
N291        N  0.30615045  0.80083037  0.34527900    -0.58200
N292        N  0.21678124  0.82146649  0.29463154    -0.05800
N293        N  0.19509605  0.84565309  0.30030746    -0.60300
N294        N  0.21677430  0.79514685  0.32103936    -0.05400
N295        N  0.19508161  0.80084293  0.34527219    -0.58200
N296        N  0.28445611  0.82145458  0.29463258    -0.05100
N297        N  0.30613908  0.84563732  0.30031183    -0.60700
C298        C  0.31943338  0.83226179  0.33183146     0.96100
C299        C  0.18179956  0.83227706  0.33182361     0.95900
N300        N  0.21677395  0.79514829  0.17895879    -0.06300
N301        N  0.19508128  0.80084511  0.15472620    -0.58800
N302        N  0.28445560  0.82145513  0.20536476    -0.04400
N303        N  0.30613873  0.84563787  0.19968542    -0.60100
N304        N  0.28446009  0.79513739  0.17895509    -0.06300
N305        N  0.30614989  0.80083197  0.15471785    -0.59100
N306        N  0.21678098  0.82146737  0.20536684    -0.04000
N307        N  0.19509604  0.84565428  0.19969113    -0.60100
Mn308      Mn  0.25061873  0.82267773  0.24999894     1.18400
C309        C  0.18179943  0.83227916  0.16817509     0.98200
C310        C  0.31943286  0.83226286  0.16816557     0.98800
N311        N  0.21676773  0.70609137  0.32104178    -0.06300
N312        N  0.19507805  0.70039670  0.34527929    -0.62600
N313        N  0.28444689  0.67976153  0.29463015    -0.05100
N314        N  0.30613190  0.65557466  0.30030567    -0.63300
N315        N  0.28445398  0.70608061  0.32103811    -0.05800
N316        N  0.30614655  0.70038389  0.34527066    -0.62900
N317        N  0.21677221  0.67977372  0.29463230    -0.04700
N318        N  0.19508915  0.65559086  0.30031165    -0.63600
Mn319      Mn  0.25061418  0.75061376  0.32227141     1.10700
C320        C  0.18179514  0.66896583  0.33183153     0.99400
C321        C  0.31942849  0.66894984  0.33182172     0.99500
N322        N  0.28445341  0.70608189  0.17895748    -0.06900
N323        N  0.30614600  0.70038571  0.15472449    -0.61200
N324        N  0.21677160  0.67977435  0.20536449    -0.05200
N325        N  0.19508841  0.65559173  0.19968531    -0.58000
N326        N  0.21676701  0.70609279  0.17895513    -0.06500
N327        N  0.19507696  0.70039866  0.15471809    -0.60800
N328        N  0.28444648  0.67976233  0.20536526    -0.05500
N329        N  0.30613157  0.65557554  0.19968921    -0.58000
Mn330      Mn  0.25061355  0.75061514  0.17772545     1.20200
Mn331      Mn  0.25060910  0.67855114  0.24999808     1.10100
Cl332      Cl  0.25061389  0.75061445  0.24999847    -0.85900
C333        C  0.31942802  0.66895145  0.16817307     0.96400
C334        C  0.18179411  0.66896753  0.16816577     0.96200
C335        C  0.15739916  0.65073255  0.14993293    -0.18500
C336        C  0.13729786  0.63495589  0.13425847     0.05600
C337        C  0.11392986  0.61627355  0.11573872     0.07400
C338        C  0.09382866  0.60049676  0.10006405    -0.19300
C339        C  0.15740038  0.65073052  0.35006454    -0.18500
C340        C  0.13729921  0.63495329  0.36573885     0.05600
C341        C  0.11393106  0.61627064  0.38425797     0.07400
C342        C  0.09382955  0.60049386  0.39993216    -0.19300
C343        C  0.15740210  0.85051365  0.14994621    -0.18500
C344        C  0.13729851  0.86628105  0.13426479     0.05600
C345        C  0.11392845  0.88494824  0.11573309     0.07400
C346        C  0.09382488  0.90071560  0.10005173    -0.19300
C347        C  0.40740330  0.60051467  0.10005102    -0.18500
C348        C  0.38729961  0.61628252  0.11573186     0.05600
C349        C  0.36392927  0.63495005  0.13426290     0.07400
C350        C  0.34382560  0.65071747  0.14994396    -0.19300
C351        C  0.34382817  0.85049681  0.35006449    -0.18500
C352        C  0.36392939  0.86627339  0.36573897     0.05600
C353        C  0.38729743  0.88495547  0.38425881     0.07400
C354        C  0.40739881  0.90073217  0.39993339    -0.19300
C355        C  0.40740323  0.60051314  0.39994492    -0.18500
C356        C  0.38729952  0.61628078  0.38426354     0.05600
C357        C  0.36392939  0.63494801  0.36573182     0.07400
C358        C  0.34382589  0.65071541  0.35005059    -0.19300
C359        C  0.09382429  0.90071363  0.39994572    -0.18500
C360        C  0.11392792  0.88494582  0.38426478     0.05600
C361        C  0.13729821  0.86627828  0.36573362     0.07400
C362        C  0.15740194  0.85051091  0.35005262    -0.19300
C363        C  0.34382764  0.85049794  0.14993277    -0.18500
C364        C  0.36392902  0.86627496  0.13425855     0.05600
C365        C  0.38729723  0.88495745  0.11573940     0.07400
C366        C  0.40739864  0.90073409  0.10006522    -0.19300
N367        N  0.46676703  0.95609319  0.57104226    -0.06100
N368        N  0.44507697  0.95039931  0.59527965    -0.58200
N369        N  0.03444580  0.92976145  0.54463119    -0.05800
N370        N  0.05613077  0.90557438  0.55030709    -0.60300
N371        N  0.03445322  0.95608094  0.57103884    -0.05400
N372        N  0.05614588  0.95038434  0.59527133    -0.58200
N373        N  0.46677120  0.92977498  0.54463309    -0.05100
N374        N  0.44508767  0.90559280  0.55031269    -0.60700
C375        C  0.43179373  0.91896865  0.58183227     0.96100
C376        C  0.06942756  0.91894995  0.58182281     0.95900
N377        N  0.03445303  0.95607990  0.92895826    -0.06300
N378        N  0.05614560  0.95038272  0.90472546    -0.58800
N379        N  0.46677089  0.92977406  0.95536538    -0.04400
N380        N  0.44508762  0.90559169  0.94968618    -0.60100
N381        N  0.46676672  0.95609217  0.92895554    -0.06300
N382        N  0.44507690  0.95039785  0.90471828    -0.59100
N383        N  0.03444571  0.92976058  0.95536653    -0.04000
N384        N  0.05613040  0.90557328  0.94969081    -0.60100
Mn385      Mn  0.50060820  0.92855087  0.49999908     1.18400
C386        C  0.06942703  0.91894845  0.91817453     0.98200
C387        C  0.43179368  0.91896706  0.91816625     0.98800
N388        N  0.03446113  0.54513638  0.57104140    -0.06300
N389        N  0.05615074  0.55083076  0.59527873    -0.62600
N390        N  0.46678201  0.57146774  0.54463033    -0.05100
N391        N  0.44509729  0.59565507  0.55030593    -0.63300
N392        N  0.46677467  0.54514854  0.57103865    -0.05800
N393        N  0.44508213  0.55084564  0.59527141    -0.62900
N394        N  0.03445693  0.57145441  0.54463162    -0.04700
N395        N  0.05614000  0.59563698  0.55031088    -0.63600
Mn396      Mn  0.00061401  0.50061469  0.57227150     1.10700
C397        C  0.06943395  0.58226168  0.58183086     0.99400
C398        C  0.43180057  0.58228000  0.58182234     0.99500
N399        N  0.46677469  0.54514762  0.92895794    -0.05900
N400        N  0.44508200  0.55084443  0.90472538    -0.61200
N401        N  0.03445674  0.57145337  0.95536393    -0.05200
N402        N  0.05614032  0.59563540  0.94968455    -0.58000
N403        N  0.03446094  0.54513533  0.92895468    -0.06500
N404        N  0.05615094  0.55082889  0.90471754    -0.60800
N405        N  0.46678206  0.57146709  0.95536560    -0.05500
N406        N  0.44509721  0.59565426  0.94968969    -0.58000
Mn407      Mn  0.00061381  0.50061374  0.92772545     1.20200
Mn408      Mn  0.00061965  0.57267749  0.49999779     1.10100
Cl409      Cl  0.00061388  0.50061423  0.49999845    -0.85900
C410        C  0.43180048  0.58227876  0.91817389     0.96400
C411        C  0.06943448  0.58225960  0.91816498     0.96200
N412        N  0.28446067  0.79513616  0.82104192    -0.06100
N413        N  0.30615050  0.80083054  0.84527905    -0.58200
N414        N  0.21678115  0.82146649  0.79463151    -0.05800
N415        N  0.19509600  0.84565302  0.80030748    -0.60300
N416        N  0.21677429  0.79514684  0.82103947    -0.05400
N417        N  0.19508160  0.80084293  0.84527218    -0.58200
N418        N  0.28445608  0.82145467  0.79463252    -0.05100
N419        N  0.30613899  0.84563737  0.80031182    -0.60700
C420        C  0.31943331  0.83226182  0.83183151     0.96100
C421        C  0.18179950  0.83227711  0.83182358     0.95900
N422        N  0.21677388  0.79514824  0.67895882    -0.06300
N423        N  0.19508123  0.80084510  0.65472611    -0.58800
N424        N  0.28445562  0.82145517  0.70536474    -0.04400
N425        N  0.30613874  0.84563782  0.69968550    -0.60100
N426        N  0.28446003  0.79513743  0.67895521    -0.06300
N427        N  0.30614986  0.80083202  0.65471785    -0.59100
N428        N  0.21678097  0.82146731  0.70536688    -0.04000
N429        N  0.19509588  0.84565432  0.69969112    -0.60100
Mn430      Mn  0.25061865  0.82267773  0.74999894     1.18400
C431        C  0.18179940  0.83227915  0.66817508     0.98200
C432        C  0.31943277  0.83226280  0.66816573     0.98800
N433        N  0.21676785  0.70609150  0.82104185    -0.06300
N434        N  0.19507795  0.70039665  0.84527943    -0.62600
N435        N  0.28444689  0.67976155  0.79463007    -0.05100
N436        N  0.30613184  0.65557468  0.80030565    -0.63300
N437        N  0.28445396  0.70608062  0.82103807    -0.05800
N438        N  0.30614662  0.70038382  0.84527064    -0.62900
N439        N  0.21677220  0.67977372  0.79463221    -0.04700
N440        N  0.19508907  0.65559080  0.80031173    -0.63600
Mn441      Mn  0.25061426  0.75061376  0.82227153     1.10700
C442        C  0.18179515  0.66896585  0.83183163     0.99400
C443        C  0.31942847  0.66894981  0.83182169     0.99500
N444        N  0.28445339  0.70608200  0.67895738    -0.06900
N445        N  0.30614604  0.70038567  0.65472447    -0.61200
N446        N  0.21677154  0.67977438  0.70536452    -0.05200
N447        N  0.19508839  0.65559180  0.69968529    -0.58000
N448        N  0.21676696  0.70609282  0.67895507    -0.06500
N449        N  0.19507704  0.70039870  0.65471811    -0.60800
N450        N  0.28444653  0.67976223  0.70536530    -0.05500
N451        N  0.30613153  0.65557559  0.69968925    -0.58000
Mn452      Mn  0.25061356  0.75061515  0.67772542     1.20200
Mn453      Mn  0.25060903  0.67855115  0.74999799     1.10100
Cl454      Cl  0.25061387  0.75061445  0.74999846    -0.85900
C455        C  0.31942800  0.66895149  0.66817301     0.96400
C456        C  0.18179409  0.66896753  0.66816574     0.96200
C457        C  0.15739917  0.65073264  0.64993288    -0.18500
C458        C  0.13729783  0.63495588  0.63425834     0.05600
C459        C  0.11392980  0.61627366  0.61573867     0.07400
C460        C  0.09382868  0.60049684  0.60006398    -0.19300
C461        C  0.15740042  0.65073056  0.85006457    -0.18500
C462        C  0.13729918  0.63495332  0.86573882     0.05600
C463        C  0.11393096  0.61627070  0.88425799     0.07400
C464        C  0.09382959  0.60049394  0.89993212    -0.19300
C465        C  0.15740218  0.85051362  0.64994617    -0.18500
C466        C  0.13729862  0.86628109  0.63426477     0.05600
C467        C  0.11392851  0.88494828  0.61573298     0.07400
C468        C  0.09382499  0.90071568  0.60005168    -0.19300
C469        C  0.40740327  0.60051463  0.60005104    -0.18500
C470        C  0.38729959  0.61628239  0.61573195     0.05600
C471        C  0.36392927  0.63495013  0.63426290     0.07400
C472        C  0.34382550  0.65071756  0.64994396    -0.19300
C473        C  0.34382810  0.85049685  0.85006449    -0.18500
C474        C  0.36392935  0.86627350  0.86573907     0.05600
C475        C  0.38729741  0.88495561  0.88425874     0.07400
C476        C  0.40739879  0.90073214  0.89993332    -0.19300
C477        C  0.40740319  0.60051327  0.89994489    -0.18500
C478        C  0.38729952  0.61628061  0.88426348     0.05600
C479        C  0.36392943  0.63494794  0.86573185     0.07400
C480        C  0.34382588  0.65071540  0.85005053    -0.19300
C481        C  0.09382439  0.90071365  0.89994569    -0.18500
C482        C  0.11392797  0.88494588  0.88426472     0.05600
C483        C  0.13729814  0.86627833  0.86573366     0.07400
C484        C  0.15740196  0.85051088  0.85005258    -0.19300
C485        C  0.34382770  0.85049803  0.64993280    -0.18500
C486        C  0.36392896  0.86627494  0.63425880     0.05600
C487        C  0.38729713  0.88495739  0.61573957     0.07400
C488        C  0.40739866  0.90073424  0.60006523    -0.19300
N489        N  0.96676701  0.45609307  0.07104223    -0.06100
N490        N  0.94507701  0.45039929  0.09527962    -0.58200
N491        N  0.53444579  0.42976141  0.04463115    -0.05800
N492        N  0.55613082  0.40557432  0.05030713    -0.60300
N493        N  0.53445315  0.45608095  0.07103886    -0.05400
N494        N  0.55614596  0.45038421  0.09527139    -0.58200
N495        N  0.96677122  0.42977494  0.04463313    -0.05100
N496        N  0.94508768  0.40559273  0.05031261    -0.60700
C497        C  0.93179372  0.41896858  0.08183217     0.96100
C498        C  0.56942756  0.41894987  0.08182279     0.95900
N499        N  0.53445305  0.45607983  0.42895826    -0.06300
N500        N  0.55614550  0.45038265  0.40472542    -0.58800
N501        N  0.96677085  0.42977406  0.45536534    -0.04400
N502        N  0.94508759  0.40559160  0.44968622    -0.60100
N503        N  0.96676668  0.45609209  0.42895562    -0.06300
N504        N  0.94507689  0.45039787  0.40471830    -0.59100
N505        N  0.53444572  0.42976053  0.45536652    -0.04000
N506        N  0.55613039  0.40557322  0.44969088    -0.60100
Mn507      Mn  0.00060821  0.42855091  0.99999904     1.18400
C508        C  0.56942706  0.41894830  0.41817448     0.98200
C509        C  0.93179361  0.41896702  0.41816622     0.98800
N510        N  0.53446113  0.04513642  0.07104144    -0.06300
N511        N  0.55615080  0.05083073  0.09527882    -0.62600
N512        N  0.96678198  0.07146789  0.04463035    -0.05100
N513        N  0.94509729  0.09565510  0.05030599    -0.63300
N514        N  0.96677476  0.04514850  0.07103865    -0.05800
N515        N  0.94508208  0.05084568  0.09527140    -0.62900
N516        N  0.53445686  0.07145440  0.04463168    -0.04700
N517        N  0.55614010  0.09563698  0.05031095    -0.63600
Mn518      Mn  0.50061401  0.00061471  0.07227151     1.10700
C519        C  0.56943400  0.08226167  0.08183093     0.99400
C520        C  0.93180055  0.08227995  0.08182238     0.99500
N521        N  0.96677465  0.04514757  0.42895792    -0.05900
N522        N  0.94508198  0.05084437  0.40472530    -0.61200
N523        N  0.53445678  0.07145342  0.45536385    -0.05200
N524        N  0.55614024  0.09563532  0.44968451    -0.58000
N525        N  0.53446087  0.04513519  0.42895462    -0.06500
N526        N  0.55615101  0.05082891  0.40471754    -0.60800
N527        N  0.96678202  0.07146714  0.45536563    -0.05500
N528        N  0.94509711  0.09565429  0.44968960    -0.58000
Mn529      Mn  0.50061381  0.00061372  0.42772538     1.20200
Mn530      Mn  0.50061961  0.07267753  0.99999785     1.10100
Cl531      Cl  0.50061391  0.00061420  0.99999848    -0.85900
C532        C  0.93180044  0.08227881  0.41817383     0.96400
C533        C  0.56943443  0.08225949  0.41816492     0.96200
N534        N  0.78446072  0.29513627  0.32104184    -0.06100
N535        N  0.80615044  0.30083041  0.34527907    -0.58200
N536        N  0.71678122  0.32146655  0.29463153    -0.05800
N537        N  0.69509605  0.34565310  0.30030746    -0.60300
N538        N  0.71677425  0.29514684  0.32103941    -0.05400
N539        N  0.69508162  0.30084294  0.34527217    -0.58200
N540        N  0.78445606  0.32145456  0.29463260    -0.05100
N541        N  0.80613911  0.34563739  0.30031185    -0.60700
C542        C  0.81943332  0.33226177  0.33183151     0.96100
C543        C  0.68179950  0.33227715  0.33182358     0.95900
N544        N  0.71677391  0.29514837  0.17895878    -0.06300
N545        N  0.69508127  0.30084513  0.15472618    -0.58800
N546        N  0.78445559  0.32145513  0.20536478    -0.04400
N547        N  0.80613877  0.34563793  0.19968542    -0.60100
N548        N  0.78446004  0.29513740  0.17895517    -0.06300
N549        N  0.80614990  0.30083202  0.15471777    -0.59100
N550        N  0.71678095  0.32146733  0.20536676    -0.04000
N551        N  0.69509604  0.34565434  0.19969115    -0.60100
Mn552      Mn  0.75061869  0.32267773  0.24999895     1.18400
C553        C  0.68179943  0.33227921  0.16817504     0.98200
C554        C  0.81943284  0.33226285  0.16816561     0.98800
N555        N  0.71676770  0.20609139  0.32104186    -0.06300
N556        N  0.69507804  0.20039669  0.34527930    -0.62600
N557        N  0.78444687  0.17976160  0.29463015    -0.05100
N558        N  0.80613188  0.15557466  0.30030565    -0.63300
N559        N  0.78445388  0.20608061  0.32103808    -0.05800
N560        N  0.80614658  0.20038386  0.34527070    -0.62900
N561        N  0.71677221  0.17977373  0.29463229    -0.04700
N562        N  0.69508912  0.15559088  0.30031167    -0.63600
Mn563      Mn  0.75061417  0.25061376  0.32227141     1.10700
C564        C  0.68179510  0.16896579  0.33183152     0.99400
C565        C  0.81942843  0.16894992  0.33182173     0.99500
N566        N  0.78445341  0.20608188  0.17895742    -0.06900
N567        N  0.80614595  0.20038573  0.15472450    -0.61200
N568        N  0.71677157  0.17977434  0.20536453    -0.05200
N569        N  0.69508845  0.15559178  0.19968532    -0.58000
N570        N  0.71676696  0.20609281  0.17895507    -0.06500
N571        N  0.69507702  0.20039868  0.15471814    -0.60800
N572        N  0.78444650  0.17976228  0.20536527    -0.05500
N573        N  0.80613151  0.15557562  0.19968923    -0.58000
Mn574      Mn  0.75061357  0.25061508  0.17772547     1.20200
Mn575      Mn  0.75060905  0.17855120  0.24999809     1.10100
Cl576      Cl  0.75061388  0.25061443  0.24999848    -0.85900
C577        C  0.81942805  0.16895142  0.16817307     0.96400
C578        C  0.68179406  0.16896747  0.16816577     0.96200
C579        C  0.65739917  0.15073253  0.14993297    -0.18500
C580        C  0.63729790  0.13495580  0.13425843     0.05600
C581        C  0.61392989  0.11627353  0.11573872     0.07400
C582        C  0.59382869  0.10049679  0.10006407    -0.19300
C583        C  0.65740041  0.15073048  0.35006459    -0.18500
C584        C  0.63729919  0.13495335  0.36573885     0.05600
C585        C  0.61393107  0.11627062  0.38425792     0.07400
C586        C  0.59382957  0.10049386  0.39993212    -0.19300
C587        C  0.65740210  0.35051377  0.14994611    -0.18500
C588        C  0.63729866  0.36628104  0.13426483     0.05600
C589        C  0.61392862  0.38494826  0.11573306     0.07400
C590        C  0.59382489  0.40071568  0.10005169    -0.19300
C591        C  0.90740326  0.10051466  0.10005100    -0.18500
C592        C  0.88729953  0.11628252  0.11573192     0.05600
C593        C  0.86392924  0.13495007  0.13426296     0.07400
C594        C  0.84382556  0.15071749  0.14994394    -0.19300
C595        C  0.84382814  0.35049681  0.35006450    -0.18500
C596        C  0.86392931  0.36627342  0.36573900     0.05600
C597        C  0.88729744  0.38495550  0.38425883     0.07400
C598        C  0.90739881  0.40073213  0.39993337    -0.19300
C599        C  0.90740319  0.10051309  0.39994491    -0.18500
C600        C  0.88729950  0.11628072  0.38426358     0.05600
C601        C  0.86392935  0.13494797  0.36573182     0.07400
C602        C  0.84382587  0.15071540  0.35005062    -0.19300
C603        C  0.59382428  0.40071361  0.39994571    -0.18500
C604        C  0.61392787  0.38494579  0.38426478     0.05600
C605        C  0.63729815  0.36627831  0.36573361     0.07400
C606        C  0.65740198  0.35051093  0.35005260    -0.19300
C607        C  0.84382762  0.35049795  0.14993282    -0.18500
C608        C  0.86392895  0.36627505  0.13425860     0.05600
C609        C  0.88729724  0.38495747  0.11573934     0.07400
C610        C  0.90739863  0.40073413  0.10006521    -0.19300
N611        N  0.96676697  0.45609316  0.57104233    -0.06100
N612        N  0.94507705  0.45039932  0.59527960    -0.58200
N613        N  0.53444582  0.42976131  0.54463116    -0.05800
N614        N  0.55613075  0.40557432  0.55030708    -0.60300
N615        N  0.53445323  0.45608096  0.57103887    -0.05400
N616        N  0.55614593  0.45038425  0.59527132    -0.58200
N617        N  0.96677114  0.42977492  0.54463305    -0.05100
N618        N  0.94508771  0.40559280  0.55031267    -0.60700
C619        C  0.93179364  0.41896852  0.58183230     0.96100
C620        C  0.56942758  0.41894987  0.58182284     0.95900
N621        N  0.53445305  0.45607990  0.92895822    -0.06300
N622        N  0.55614558  0.45038271  0.90472544    -0.58800
N623        N  0.96677090  0.42977406  0.95536530    -0.04400
N624        N  0.94508763  0.40559164  0.94968624    -0.60100
N625        N  0.96676667  0.45609213  0.92895560    -0.06300
N626        N  0.94507688  0.45039789  0.90471833    -0.59100
N627        N  0.53444571  0.42976056  0.95536656    -0.04000
N628        N  0.55613045  0.40557327  0.94969079    -0.60100
Mn629      Mn  0.00060816  0.42855092  0.49999907     1.18400
C630        C  0.56942705  0.41894838  0.91817448     0.98200
C631        C  0.93179365  0.41896705  0.91816627     0.98800
N632        N  0.53446109  0.04513636  0.57104146    -0.06300
N633        N  0.55615076  0.05083076  0.59527874    -0.62600
N634        N  0.96678200  0.07146776  0.54463034    -0.05100
N635        N  0.94509727  0.09565510  0.55030590    -0.63300
N636        N  0.96677469  0.04514863  0.57103858    -0.05800
N637        N  0.94508212  0.05084568  0.59527139    -0.62900
N638        N  0.53445690  0.07145442  0.54463154    -0.04700
N639        N  0.55614009  0.09563697  0.55031088    -0.63600
Mn640      Mn  0.50061399  0.00061477  0.57227148     1.10700
C641        C  0.56943393  0.08226166  0.58183081     0.99400
C642        C  0.93180059  0.08227996  0.58182229     0.99500
N643        N  0.96677467  0.04514761  0.92895796    -0.05900
N644        N  0.94508198  0.05084436  0.90472538    -0.61200
N645        N  0.53445670  0.07145341  0.95536394    -0.05200
N646        N  0.55614034  0.09563542  0.94968453    -0.58000
N647        N  0.53446093  0.04513529  0.92895471    -0.06500
N648        N  0.55615097  0.05082890  0.90471756    -0.60800
N649        N  0.96678202  0.07146706  0.95536561    -0.05500
N650        N  0.94509716  0.09565425  0.94968967    -0.58000
Mn651      Mn  0.50061382  0.00061373  0.92772544     1.20200
Mn652      Mn  0.50061966  0.07267753  0.49999778     1.10100
Cl653      Cl  0.50061390  0.00061425  0.49999845    -0.85900
C654        C  0.93180043  0.08227875  0.91817386     0.96400
C655        C  0.56943442  0.08225954  0.91816504     0.96200
N656        N  0.78446065  0.29513615  0.82104187    -0.06100
N657        N  0.80615059  0.30083049  0.84527912    -0.58200
N658        N  0.71678120  0.32146650  0.79463163    -0.05800
N659        N  0.69509608  0.34565310  0.80030748    -0.60300
N660        N  0.71677427  0.29514693  0.82103937    -0.05400
N661        N  0.69508162  0.30084295  0.84527216    -0.58200
N662        N  0.78445608  0.32145455  0.79463252    -0.05100
N663        N  0.80613911  0.34563739  0.80031186    -0.60700
C664        C  0.81943332  0.33226172  0.83183148     0.96100
C665        C  0.68179958  0.33227710  0.83182359     0.95900
N666        N  0.71677388  0.29514826  0.67895885    -0.06300
N667        N  0.69508131  0.30084512  0.65472617    -0.58800
N668        N  0.78445561  0.32145510  0.70536476    -0.04400
N669        N  0.80613878  0.34563783  0.69968547    -0.60100
N670        N  0.78446004  0.29513739  0.67895520    -0.06300
N671        N  0.80614988  0.30083199  0.65471782    -0.59100
N672        N  0.71678100  0.32146739  0.70536684    -0.04000
N673        N  0.69509598  0.34565434  0.69969116    -0.60100
Mn674      Mn  0.75061866  0.32267770  0.74999894     1.18400
C675        C  0.68179945  0.33227918  0.66817512     0.98200
C676        C  0.81943278  0.33226278  0.66816564     0.98800
N677        N  0.71676779  0.20609151  0.82104190    -0.06300
N678        N  0.69507799  0.20039663  0.84527940    -0.62600
N679        N  0.78444686  0.17976153  0.79463006    -0.05100
N680        N  0.80613183  0.15557469  0.80030565    -0.63300
N681        N  0.78445401  0.20608064  0.82103812    -0.05800
N682        N  0.80614656  0.20038385  0.84527061    -0.62900
N683        N  0.71677215  0.17977365  0.79463221    -0.04700
N684        N  0.69508911  0.15559083  0.80031171    -0.63600
Mn685      Mn  0.75061421  0.25061375  0.82227154     1.10700
C686        C  0.68179517  0.16896581  0.83183166     0.99400
C687        C  0.81942848  0.16894976  0.83182171     0.99500
N688        N  0.78445339  0.20608201  0.67895732    -0.06900
N689        N  0.80614600  0.20038568  0.65472450    -0.61200
N690        N  0.71677150  0.17977436  0.70536450    -0.05200
N691        N  0.69508841  0.15559181  0.69968530    -0.58000
N692        N  0.71676691  0.20609281  0.67895507    -0.06500
N693        N  0.69507705  0.20039871  0.65471813    -0.60800
N694        N  0.78444651  0.17976218  0.70536536    -0.05500
N695        N  0.80613155  0.15557558  0.69968923    -0.58000
Mn696      Mn  0.75061354  0.25061517  0.67772543     1.20200
Mn697      Mn  0.75060903  0.17855113  0.74999802     1.10100
Cl698      Cl  0.75061388  0.25061449  0.74999846    -0.85900
C699        C  0.81942799  0.16895146  0.66817302     0.96400
C700        C  0.68179410  0.16896753  0.66816574     0.96200
C701        C  0.65739915  0.15073260  0.64993288    -0.18500
C702        C  0.63729789  0.13495586  0.63425840     0.05600
C703        C  0.61392991  0.11627361  0.61573865     0.07400
C704        C  0.59382865  0.10049678  0.60006394    -0.19300
C705        C  0.65740046  0.15073053  0.85006455    -0.18500
C706        C  0.63729920  0.13495327  0.86573881     0.05600
C707        C  0.61393104  0.11627064  0.88425799     0.07400
C708        C  0.59382959  0.10049394  0.89993212    -0.19300
C709        C  0.65740216  0.35051362  0.64994619    -0.18500
C710        C  0.63729864  0.36628103  0.63426483     0.05600
C711        C  0.61392854  0.38494819  0.61573300     0.07400
C712        C  0.59382491  0.40071564  0.60005159    -0.19300
C713        C  0.90740320  0.10051468  0.60005102    -0.18500
C714        C  0.88729959  0.11628247  0.61573187     0.05600
C715        C  0.86392927  0.13495007  0.63426293     0.07400
C716        C  0.84382544  0.15071757  0.64994399    -0.19300
C717        C  0.84382813  0.35049681  0.85006452    -0.18500
C718        C  0.86392943  0.36627341  0.86573908     0.05600
C719        C  0.88729749  0.38495561  0.88425882     0.07400
C720        C  0.90739880  0.40073215  0.89993333    -0.19300
C721        C  0.90740317  0.10051320  0.89994492    -0.18500
C722        C  0.88729947  0.11628054  0.88426347     0.05600
C723        C  0.86392939  0.13494793  0.86573186     0.07400
C724        C  0.84382587  0.15071537  0.85005056    -0.19300
C725        C  0.59382430  0.40071369  0.89994570    -0.18500
C726        C  0.61392801  0.38494586  0.88426468     0.05600
C727        C  0.63729821  0.36627834  0.86573360     0.07400
C728        C  0.65740187  0.35051097  0.85005259    -0.19300
C729        C  0.84382769  0.35049798  0.64993277    -0.18500
C730        C  0.86392898  0.36627487  0.63425872     0.05600
C731        C  0.88729720  0.38495738  0.61573959     0.07400
C732        C  0.90739867  0.40073421  0.60006519    -0.19300
N733        N  0.96676698  0.95609305  0.07104225    -0.06100
N734        N  0.94507702  0.95039928  0.09527964    -0.58200
N735        N  0.53444586  0.92976135  0.04463124    -0.05800
N736        N  0.55613070  0.90557435  0.05030706    -0.60300
N737        N  0.53445319  0.95608095  0.07103885    -0.05400
N738        N  0.55614592  0.95038419  0.09527134    -0.58200
N739        N  0.96677118  0.92977502  0.04463305    -0.05100
N740        N  0.94508765  0.90559274  0.05031267    -0.60700
C741        C  0.93179374  0.91896852  0.08183217     0.96100
C742        C  0.56942752  0.91894990  0.08182287     0.95900
N743        N  0.53445303  0.95607981  0.42895818    -0.06300
N744        N  0.55614552  0.95038267  0.40472542    -0.58800
N745        N  0.96677091  0.92977412  0.45536543    -0.04400
N746        N  0.94508755  0.90559164  0.44968620    -0.60100
N747        N  0.96676664  0.95609209  0.42895554    -0.06300
N748        N  0.94507691  0.95039791  0.40471834    -0.59100
N749        N  0.53444572  0.92976055  0.45536655    -0.04000
N750        N  0.55613041  0.90557324  0.44969082    -0.60100
Mn751      Mn  0.00060822  0.92855096  0.99999910     1.18400
C752        C  0.56942707  0.91894830  0.41817445     0.98200
C753        C  0.93179362  0.91896701  0.41816629     0.98800
N754        N  0.53446109  0.54513639  0.07104145    -0.06300
N755        N  0.55615076  0.55083072  0.09527886    -0.62600
N756        N  0.96678203  0.57146784  0.04463033    -0.05100
N757        N  0.94509725  0.59565510  0.05030602    -0.63300
N758        N  0.96677472  0.54514856  0.07103867    -0.05800
N759        N  0.94508212  0.55084564  0.09527138    -0.62900
N760        N  0.53445689  0.57145431  0.04463167    -0.04700
N761        N  0.55614011  0.59563697  0.05031094    -0.63600
Mn762      Mn  0.50061399  0.50061475  0.07227151     1.10700
C763        C  0.56943394  0.58226164  0.08183093     0.99400
C764        C  0.93180056  0.58227998  0.08182234     0.99500
N765        N  0.96677463  0.54514760  0.42895803    -0.05900
N766        N  0.94508202  0.55084439  0.40472531    -0.61200
N767        N  0.53445680  0.57145341  0.45536381    -0.05200
N768        N  0.55614027  0.59563537  0.44968451    -0.58000
N769        N  0.53446091  0.54513528  0.42895463    -0.06500
N770        N  0.55615098  0.55082890  0.40471754    -0.60800
N771        N  0.96678198  0.57146708  0.45536556    -0.05500
N772        N  0.94509715  0.59565430  0.44968966    -0.58000
Mn773      Mn  0.50061382  0.50061369  0.42772540     1.20200
Mn774      Mn  0.50061963  0.57267747  0.99999786     1.10100
Cl775      Cl  0.50061390  0.50061422  0.99999848    -0.85900
C776        C  0.93180041  0.58227887  0.41817381     0.96400
C777        C  0.56943437  0.58225946  0.41816500     0.96200
N778        N  0.78446077  0.79513624  0.32104186    -0.06100
N779        N  0.80615046  0.80083035  0.34527900    -0.58200
N780        N  0.71678124  0.82146652  0.29463154    -0.05800
N781        N  0.69509608  0.84565310  0.30030750    -0.60300
N782        N  0.71677431  0.79514685  0.32103939    -0.05400
N783        N  0.69508162  0.80084293  0.34527218    -0.58200
N784        N  0.78445611  0.82145458  0.29463258    -0.05100
N785        N  0.80613910  0.84563730  0.30031183    -0.60700
C786        C  0.81943340  0.83226177  0.33183147     0.96100
C787        C  0.68179961  0.83227705  0.33182360     0.95900
N788        N  0.71677393  0.79514829  0.17895888    -0.06300
N789        N  0.69508125  0.80084514  0.15472623    -0.58800
N790        N  0.78445560  0.82145513  0.20536479    -0.04400
N791        N  0.80613873  0.84563779  0.19968542    -0.60100
N792        N  0.78446013  0.79513736  0.17895503    -0.06300
N793        N  0.80614983  0.80083193  0.15471785    -0.59100
N794        N  0.71678093  0.82146740  0.20536678    -0.04000
N795        N  0.69509608  0.84565431  0.19969119    -0.60100
Mn796      Mn  0.75061872  0.82267771  0.24999894     1.18400
C797        C  0.68179943  0.83227915  0.16817509     0.98200
C798        C  0.81943287  0.83226287  0.16816556     0.98800
N799        N  0.71676778  0.70609144  0.32104183    -0.06300
N800        N  0.69507797  0.70039669  0.34527929    -0.62600
N801        N  0.78444679  0.67976155  0.29463007    -0.05100
N802        N  0.80613196  0.65557462  0.30030574    -0.63300
N803        N  0.78445394  0.70608062  0.32103815    -0.05800
N804        N  0.80614657  0.70038389  0.34527070    -0.62900
N805        N  0.71677221  0.67977365  0.29463226    -0.04700
N806        N  0.69508913  0.65559084  0.30031167    -0.63600
Mn807      Mn  0.75061419  0.75061379  0.32227145     1.10700
C808        C  0.68179514  0.66896587  0.33183152     0.99400
C809        C  0.81942850  0.66894981  0.33182171     0.99500
N810        N  0.78445337  0.70608187  0.17895749    -0.06900
N811        N  0.80614598  0.70038569  0.15472446    -0.61200
N812        N  0.71677160  0.67977431  0.20536450    -0.05200
N813        N  0.69508840  0.65559168  0.19968533    -0.58000
N814        N  0.71676699  0.70609280  0.17895517    -0.06500
N815        N  0.69507695  0.70039863  0.15471812    -0.60800
N816        N  0.78444647  0.67976237  0.20536526    -0.05500
N817        N  0.80613161  0.65557555  0.19968921    -0.58000
Mn818      Mn  0.75061352  0.75061517  0.17772546     1.20200
Mn819      Mn  0.75060909  0.67855111  0.24999806     1.10100
Cl820      Cl  0.75061388  0.75061446  0.24999848    -0.85900
C821        C  0.81942794  0.66895148  0.16817308     0.96400
C822        C  0.68179411  0.66896750  0.16816580     0.96200
C823        C  0.65739920  0.65073253  0.14993295    -0.18500
C824        C  0.63729787  0.63495584  0.13425847     0.05600
C825        C  0.61392983  0.61627354  0.11573869     0.07400
C826        C  0.59382868  0.60049676  0.10006409    -0.19300
C827        C  0.65740043  0.65073054  0.35006447    -0.18500
C828        C  0.63729911  0.63495329  0.36573884     0.05600
C829        C  0.61393099  0.61627061  0.38425799     0.07400
C830        C  0.59382960  0.60049389  0.39993209    -0.19300
C831        C  0.65740209  0.85051367  0.14994620    -0.18500
C832        C  0.63729857  0.86628106  0.13426484     0.05600
C833        C  0.61392851  0.88494822  0.11573309     0.07400
C834        C  0.59382486  0.90071560  0.10005170    -0.19300
C835        C  0.90740326  0.60051464  0.10005104    -0.18500
C836        C  0.88729949  0.61628252  0.11573184     0.05600
C837        C  0.86392922  0.63495008  0.13426292     0.07400
C838        C  0.84382557  0.65071742  0.14994390    -0.19300
C839        C  0.84382819  0.85049679  0.35006450    -0.18500
C840        C  0.86392940  0.86627338  0.36573896     0.05600
C841        C  0.88729745  0.88495546  0.38425880     0.07400
C842        C  0.90739883  0.90073217  0.39993337    -0.19300
C843        C  0.90740313  0.60051318  0.39994488    -0.18500
C844        C  0.88729959  0.61628072  0.38426360     0.05600
C845        C  0.86392944  0.63494798  0.36573184     0.07400
C846        C  0.84382582  0.65071540  0.35005060    -0.19300
C847        C  0.59382429  0.90071363  0.39994573    -0.18500
C848        C  0.61392796  0.88494579  0.38426475     0.05600
C849        C  0.63729822  0.86627829  0.36573362     0.07400
C850        C  0.65740195  0.85051094  0.35005263    -0.19300
C851        C  0.84382765  0.85049790  0.14993278    -0.18500
C852        C  0.86392901  0.86627490  0.13425854     0.05600
C853        C  0.88729722  0.88495742  0.11573943     0.07400
C854        C  0.90739866  0.90073407  0.10006522    -0.19300
N855        N  0.96676701  0.95609325  0.57104233    -0.06100
N856        N  0.94507702  0.95039933  0.59527963    -0.58200
N857        N  0.53444578  0.92976148  0.54463118    -0.05800
N858        N  0.55613082  0.90557434  0.55030712    -0.60300
N859        N  0.53445319  0.95608095  0.57103881    -0.05400
N860        N  0.55614593  0.95038431  0.59527137    -0.58200
N861        N  0.96677122  0.92977495  0.54463304    -0.05100
N862        N  0.94508769  0.90559284  0.55031270    -0.60700
C863        C  0.93179369  0.91896861  0.58183227     0.96100
C864        C  0.56942753  0.91894997  0.58182280     0.95900
N865        N  0.53445306  0.95607988  0.92895827    -0.06300
N866        N  0.55614558  0.95038274  0.90472547    -0.58800
N867        N  0.96677090  0.92977406  0.95536538    -0.04400
N868        N  0.94508763  0.90559168  0.94968617    -0.60100
N869        N  0.96676673  0.95609217  0.92895554    -0.06300
N870        N  0.94507689  0.95039785  0.90471827    -0.59100
N871        N  0.53444575  0.92976058  0.95536650    -0.04000
N872        N  0.55613038  0.90557327  0.94969083    -0.60100
Mn873      Mn  0.00060819  0.92855092  0.49999910     1.18400
C874        C  0.56942710  0.91894839  0.91817448     0.98200
C875        C  0.93179368  0.91896705  0.91816624     0.98800
N876        N  0.53446109  0.54513637  0.57104137    -0.06300
N877        N  0.55615078  0.55083078  0.59527877    -0.62600
N878        N  0.96678204  0.57146773  0.54463030    -0.05100
N879        N  0.94509725  0.59565510  0.55030599    -0.63300
N880        N  0.96677472  0.54514849  0.57103863    -0.05800
N881        N  0.94508212  0.55084563  0.59527143    -0.62900
N882        N  0.53445690  0.57145439  0.54463162    -0.04700
N883        N  0.55614004  0.59563702  0.55031090    -0.63600
Mn884      Mn  0.50061402  0.50061470  0.57227151     1.10700
C885        C  0.56943395  0.58226169  0.58183087     0.99400
C886        C  0.93180057  0.58227995  0.58182235     0.99500
N887        N  0.96677464  0.54514763  0.92895794    -0.05900
N888        N  0.94508204  0.55084439  0.90472542    -0.61200
N889        N  0.53445672  0.57145340  0.95536395    -0.05200
N890        N  0.55614036  0.59563543  0.94968452    -0.58000
N891        N  0.53446086  0.54513525  0.92895469    -0.06500
N892        N  0.55615102  0.55082896  0.90471750    -0.60800
N893        N  0.96678199  0.57146710  0.95536561    -0.05500
N894        N  0.94509725  0.59565424  0.94968972    -0.58000
Mn895      Mn  0.50061379  0.50061372  0.92772544     1.20200
Mn896      Mn  0.50061969  0.57267751  0.49999777     1.10100
Cl897      Cl  0.50061388  0.50061423  0.49999845    -0.85900
C898        C  0.93180044  0.58227879  0.91817387     0.96400
C899        C  0.56943446  0.58225957  0.91816495     0.96200
N900        N  0.78446068  0.79513615  0.82104191    -0.06100
N901        N  0.80615054  0.80083053  0.84527903    -0.58200
N902        N  0.71678121  0.82146645  0.79463152    -0.05800
N903        N  0.69509598  0.84565304  0.80030747    -0.60300
N904        N  0.71677434  0.79514685  0.82103944    -0.05400
N905        N  0.69508158  0.80084294  0.84527223    -0.58200
N906        N  0.78445611  0.82145466  0.79463252    -0.05100
N907        N  0.80613901  0.84563738  0.80031183    -0.60700
C908        C  0.81943333  0.83226182  0.83183150     0.96100
C909        C  0.68179949  0.83227708  0.83182355     0.95900
N910        N  0.71677389  0.79514828  0.67895886    -0.06300
N911        N  0.69508126  0.80084510  0.65472613    -0.58800
N912        N  0.78445565  0.82145517  0.70536471    -0.04400
N913        N  0.80613872  0.84563781  0.69968552    -0.60100
N914        N  0.78446006  0.79513746  0.67895520    -0.06300
N915        N  0.80614983  0.80083201  0.65471785    -0.59100
N916        N  0.71678098  0.82146728  0.70536686    -0.04000
N917        N  0.69509592  0.84565432  0.69969113    -0.60100
Mn918      Mn  0.75061868  0.82267772  0.74999893     1.18400
C919        C  0.68179940  0.83227918  0.66817506     0.98200
C920        C  0.81943282  0.83226283  0.66816569     0.98800
N921        N  0.71676780  0.70609139  0.82104184    -0.06300
N922        N  0.69507801  0.70039669  0.84527944    -0.62600
N923        N  0.78444692  0.67976147  0.79463004    -0.05100
N924        N  0.80613186  0.65557464  0.80030565    -0.63300
N925        N  0.78445392  0.70608070  0.82103810    -0.05800
N926        N  0.80614669  0.70038379  0.84527066    -0.62900
N927        N  0.71677222  0.67977380  0.79463226    -0.04700
N928        N  0.69508909  0.65559083  0.80031175    -0.63600
Mn929      Mn  0.75061423  0.75061375  0.82227153     1.10700
C930        C  0.68179515  0.66896583  0.83183164     0.99400
C931        C  0.81942847  0.66894985  0.83182170     0.99500
N932        N  0.78445341  0.70608190  0.67895742    -0.06900
N933        N  0.80614595  0.70038570  0.65472447    -0.61200
N934        N  0.71677155  0.67977447  0.70536447    -0.05200
N935        N  0.69508838  0.65559178  0.69968530    -0.58000
N936        N  0.71676697  0.70609278  0.67895517    -0.06500
N937        N  0.69507702  0.70039871  0.65471809    -0.60800
N938        N  0.78444652  0.67976231  0.70536522    -0.05500
N939        N  0.80613150  0.65557559  0.69968925    -0.58000
Mn940      Mn  0.75061357  0.75061516  0.67772546     1.20200
Mn941      Mn  0.75060906  0.67855116  0.74999799     1.10100
Cl942      Cl  0.75061387  0.75061445  0.74999846    -0.85900
C943        C  0.81942802  0.66895145  0.66817301     0.96400
C944        C  0.68179408  0.66896754  0.66816575     0.96200
C945        C  0.65739910  0.65073261  0.64993285    -0.18500
C946        C  0.63729786  0.63495592  0.63425837     0.05600
C947        C  0.61392981  0.61627366  0.61573867     0.07400
C948        C  0.59382863  0.60049686  0.60006399    -0.19300
C949        C  0.65740035  0.65073054  0.85006461    -0.18500
C950        C  0.63729923  0.63495336  0.86573879     0.05600
C951        C  0.61393103  0.61627073  0.88425796     0.07400
C952        C  0.59382953  0.60049397  0.89993208    -0.19300
C953        C  0.65740214  0.85051365  0.64994615    -0.18500
C954        C  0.63729862  0.86628109  0.63426478     0.05600
C955        C  0.61392853  0.88494828  0.61573298     0.07400
C956        C  0.59382495  0.90071564  0.60005171    -0.19300
C957        C  0.90740326  0.60051455  0.60005100    -0.18500
C958        C  0.88729954  0.61628240  0.61573199     0.05600
C959        C  0.86392916  0.63495010  0.63426290     0.07400
C960        C  0.84382554  0.65071752  0.64994390    -0.19300
C961        C  0.84382812  0.85049686  0.85006448    -0.18500
C962        C  0.86392937  0.86627349  0.86573907     0.05600
C963        C  0.88729742  0.88495560  0.88425873     0.07400
C964        C  0.90739881  0.90073213  0.89993332    -0.19300
C965        C  0.90740315  0.60051325  0.89994492    -0.18500
C966        C  0.88729956  0.61628060  0.88426351     0.05600
C967        C  0.86392945  0.63494793  0.86573185     0.07400
C968        C  0.84382581  0.65071543  0.85005049    -0.19300
C969        C  0.59382440  0.90071366  0.89994571    -0.18500
C970        C  0.61392790  0.88494586  0.88426469     0.05600
C971        C  0.63729814  0.86627830  0.86573363     0.07400
C972        C  0.65740194  0.85051086  0.85005258    -0.19300
C973        C  0.84382770  0.85049801  0.64993281    -0.18500
C974        C  0.86392890  0.86627495  0.63425878     0.05600
C975        C  0.88729710  0.88495739  0.61573960     0.07400
C976        C  0.90739866  0.90073425  0.60006522    -0.19300
loop_ 
_geom_bond_atom_site_label_1 
_geom_bond_atom_site_label_2 
_geom_bond_distance 
_geom_bond_site_symmetry_2 
_ccdc_geom_bond_type 
N1            N2   1.321       .  A
N1            N7   1.316       .  A
N1         Mn762   2.202       .  S
N2            C9   1.351       .  A
N3            N5   1.316       .  A
N3            N4   1.321       .  A
N3         Mn507   2.202   1_554  S
N4           C10   1.351       .  A
N5            N6   1.321       .  A
N5         Mn274   2.202       .  S
N6           C10   1.351       .  A
N7            N8   1.321       .  A
N7          Mn19   2.202   1_554  S
N8            C9   1.351       .  A
C9          C122   1.435       .  S
C10         C102   1.435       .  S
N11          N17   1.316       .  A
N11          N12   1.321       .  A
N11        Mn285   2.202       .  S
N12          C20   1.351       .  A
N13          N14   1.321       .  A
N13          N15   1.316       .  A
N13        Mn141   2.202       .  S
N14          C21   1.351       .  A
N15          N16   1.321       .  A
N15        Mn773   2.202       .  S
N16          C21   1.351       .  A
N17          N18   1.321       .  A
N17        Mn629   2.202       .  S
N18          C20   1.351       .  A
Mn19        N491   2.202   1_556  S
Mn19        N135   2.202       .  S
Mn19        N627   2.202       .  S
Mn19       Cl775   2.547       .  S
C20         C115   1.435       .  S
C21         C110   1.435       .  S
N22          N23   1.321       .  A
N22          N28   1.316       .  A
N22         Mn30   2.202       .  S
N23          C31   1.351       .  A
N24          N26   1.316       .  A
N24          N25   1.321       .  A
N24        Mn530   2.202   1_554  S
N25          C32   1.351       .  A
N26          N27   1.321       .  A
N26        Mn518   2.202       .  S
N27          C32   1.351       .  A
N28          N29   1.321       .  A
N28         Mn42   2.202   1_554  S
N29          C31   1.351       .  A
Mn30        N733   2.202   1_445  S
Mn30        N249   2.202   1_545  S
Mn30        N514   2.202   1_455  S
Mn30        Cl43   2.548   1_554  S
C31          C94   1.435       .  S
C32         C103   1.435       .  S
N33          N34   1.321       .  A
N33          N39   1.316       .  A
N33        Mn529   2.202       .  S
N34          C44   1.351       .  A
N35          N36   1.321       .  A
N35          N37   1.316       .  A
N35        Mn164   2.202       .  S
N36          C45   1.351       .  A
N37          N38   1.321       .  A
N37         Mn41   2.202       .  S
N38          C45   1.351       .  A
N39          N40   1.321       .  A
N39        Mn652   2.202       .  S
N40          C44   1.351       .  A
Mn41        N255   2.202   1_545  S
Mn41        N747   2.202   1_445  S
Mn41        N521   2.202   1_455  S
Mn41       Cl165   2.548       .  S
Mn42        N512   2.202   1_456  S
Mn42        N157   2.202       .  S
Mn42        N649   2.202   1_455  S
Mn42        Cl43   2.547       .  S
Cl43       Mn751   2.547   1_545  S
Cl43       Mn163   2.548       .  S
C44         C111   1.435       .  S
C45          C98   1.435       .  S
N46          N47   1.321       .  A
N46          N52   1.316       .  A
N46         Mn75   2.202       .  S
N47          C54   1.351       .  A
N48          N50   1.316       .  A
N48          N49   1.321       .  A
N48         Mn64   2.202       .  S
N49          C55   1.351       .  A
N50          N51   1.321       .  A
N50         Mn75   2.202       .  S
N51          C55   1.351       .  A
N52          N53   1.321       .  A
N52         Mn64   2.202       .  S
N53          C54   1.351       .  A
C54         C107   1.435       .  S
C55         C118   1.435       .  S
N56          N62   1.316       .  A
N56          N57   1.321       .  A
N56         Mn86   2.202       .  S
N57          C65   1.351       .  A
N58          N59   1.321       .  A
N58          N60   1.316       .  A
N58         Mn64   2.202       .  S
N59          C66   1.351       .  A
N60          N61   1.321       .  A
N60         Mn86   2.202       .  S
N61          C66   1.351       .  A
N62          N63   1.321       .  A
N62         Mn64   2.202       .  S
N63          C65   1.351       .  A
Mn64        Cl88   2.547       .  S
C65          C99   1.435       .  S
C66         C119   1.435       .  S
N67          N68   1.321       .  A
N67          N73   1.316       .  A
N67         Mn75   2.202       .  S
N68          C76   1.351       .  A
N69          N71   1.316       .  A
N69          N70   1.321       .  A
N69         Mn87   2.202       .  S
N70          C77   1.351       .  A
N71          N72   1.321       .  A
N71         Mn75   2.202       .  S
N72          C77   1.351       .  A
N73          N74   1.321       .  A
N73         Mn87   2.202       .  S
N74          C76   1.351       .  A
Mn75        Cl88   2.548       .  S
C76          C95   1.435       .  S
C77         C114   1.435       .  S
N78          N79   1.321       .  A
N78          N84   1.316       .  A
N78         Mn86   2.202       .  S
N79          C89   1.351       .  A
N80          N81   1.321       .  A
N80          N82   1.316       .  A
N80         Mn87   2.202       .  S
N81          C90   1.351       .  A
N82          N83   1.321       .  A
N82         Mn86   2.202       .  S
N83          C90   1.351       .  A
N84          N85   1.321       .  A
N84         Mn87   2.202       .  S
N85          C89   1.351       .  A
Mn86        Cl88   2.548       .  S
Mn87        Cl88   2.547       .  S
C89         C106   1.435       .  S
C90          C91   1.435       .  S
C91          C92   1.205       .  T
C92          C93   1.412       .  S
C93          C94   1.205       .  T
C95          C96   1.205       .  T
C96          C97   1.412       .  S
C97          C98   1.205       .  T
C99         C100   1.205       .  T
C100        C101   1.412       .  S
C101        C102   1.205       .  T
C103        C104   1.205       .  T
C104        C105   1.412       .  S
C105        C106   1.205       .  T
C107        C108   1.205       .  T
C108        C109   1.412       .  S
C109        C110   1.205       .  T
C111        C112   1.205       .  T
C112        C113   1.412       .  S
C113        C114   1.205       .  T
C115        C116   1.205       .  T
C116        C117   1.412       .  S
C117        C118   1.205       .  T
C119        C120   1.205       .  T
C120        C121   1.412       .  S
C121        C122   1.205       .  T
N123        N124   1.321       .  A
N123        N129   1.316       .  A
N123       Mn884   2.202       .  S
N124        C131   1.351       .  A
N125        N127   1.316       .  A
N125        N126   1.321       .  A
N125       Mn629   2.202       .  S
N126        C132   1.351       .  A
N127        N128   1.321       .  A
N127       Mn396   2.202       .  S
N128        C132   1.351       .  A
N129        N130   1.321       .  A
N129       Mn141   2.202       .  S
N130        C131   1.351       .  A
C131        C244   1.435       .  S
C132        C224   1.435       .  S
N133        N139   1.316       .  A
N133        N134   1.321       .  A
N133       Mn407   2.202       .  S
N134        C142   1.351       .  A
N135        N136   1.321       .  A
N135        N137   1.316       .  A
N136        C143   1.351       .  A
N137        N138   1.321       .  A
N137       Mn895   2.202       .  S
N138        C143   1.351       .  A
N139        N140   1.321       .  A
N139       Mn507   2.202       .  S
N140        C142   1.351       .  A
Mn141       N613   2.202       .  S
Mn141       N505   2.202       .  S
Mn141      Cl897   2.547       .  S
C142        C237   1.435       .  S
C143        C232   1.435       .  S
N144        N145   1.321       .  A
N144        N150   1.316       .  A
N144       Mn152   2.202       .  S
N145        C153   1.351       .  A
N146        N148   1.316       .  A
N146        N147   1.321       .  A
N146       Mn652   2.202       .  S
N147        C154   1.351       .  A
N148        N149   1.321       .  A
N148       Mn640   2.202       .  S
N149        C154   1.351       .  A
N150        N151   1.321       .  A
N150       Mn164   2.202       .  S
N151        C153   1.351       .  A
Mn152       N855   2.202   1_445  S
Mn152       N371   2.202   1_545  S
Mn152       N636   2.202   1_455  S
Mn152      Cl165   2.548       .  S
C153        C216   1.435       .  S
C154        C225   1.435       .  S
N155        N156   1.321       .  A
N155        N161   1.316       .  A
N155       Mn651   2.202       .  S
N156        C166   1.351       .  A
N157        N158   1.321       .  A
N157        N159   1.316       .  A
N158        C167   1.351       .  A
N159        N160   1.321       .  A
N159       Mn163   2.202       .  S
N160        C167   1.351       .  A
N161        N162   1.321       .  A
N161       Mn530   2.202       .  S
N162        C166   1.351       .  A
Mn163       N377   2.202   1_545  S
Mn163       N869   2.202   1_445  S
Mn163       N643   2.202   1_455  S
Mn164       N634   2.202   1_455  S
Mn164       N527   2.202   1_455  S
Mn164      Cl165   2.547       .  S
Cl165      Mn873   2.547   1_545  S
C166        C233   1.435       .  S
C167        C220   1.435       .  S
N168        N169   1.321       .  A
N168        N174   1.316       .  A
N168       Mn197   2.202       .  S
N169        C176   1.351       .  A
N170        N172   1.316       .  A
N170        N171   1.321       .  A
N170       Mn186   2.202       .  S
N171        C177   1.351       .  A
N172        N173   1.321       .  A
N172       Mn197   2.202       .  S
N173        C177   1.351       .  A
N174        N175   1.321       .  A
N174       Mn186   2.202       .  S
N175        C176   1.351       .  A
C176        C229   1.435       .  S
C177        C240   1.435       .  S
N178        N184   1.316       .  A
N178        N179   1.321       .  A
N178       Mn208   2.202       .  S
N179        C187   1.351       .  A
N180        N181   1.321       .  A
N180        N182   1.316       .  A
N180       Mn186   2.202       .  S
N181        C188   1.351       .  A
N182        N183   1.321       .  A
N182       Mn208   2.202       .  S
N183        C188   1.351       .  A
N184        N185   1.321       .  A
N184       Mn186   2.202       .  S
N185        C187   1.351       .  A
Mn186      Cl210   2.547       .  S
C187        C221   1.435       .  S
C188        C241   1.435       .  S
N189        N190   1.321       .  A
N189        N195   1.316       .  A
N189       Mn197   2.202       .  S
N190        C198   1.351       .  A
N191        N193   1.316       .  A
N191        N192   1.321       .  A
N191       Mn209   2.202       .  S
N192        C199   1.351       .  A
N193        N194   1.321       .  A
N193       Mn197   2.202       .  S
N194        C199   1.351       .  A
N195        N196   1.321       .  A
N195       Mn209   2.202       .  S
N196        C198   1.351       .  A
Mn197      Cl210   2.548       .  S
C198        C217   1.435       .  S
C199        C236   1.435       .  S
N200        N201   1.321       .  A
N200        N206   1.316       .  A
N200       Mn208   2.202       .  S
N201        C211   1.351       .  A
N202        N203   1.321       .  A
N202        N204   1.316       .  A
N202       Mn209   2.202       .  S
N203        C212   1.351       .  A
N204        N205   1.321       .  A
N204       Mn208   2.202       .  S
N205        C212   1.351       .  A
N206        N207   1.321       .  A
N206       Mn209   2.202       .  S
N207        C211   1.351       .  A
Mn208      Cl210   2.548       .  S
Mn209      Cl210   2.547       .  S
C211        C228   1.435       .  S
C212        C213   1.435       .  S
C213        C214   1.205       .  T
C214        C215   1.412       .  S
C215        C216   1.205       .  T
C217        C218   1.205       .  T
C218        C219   1.412       .  S
C219        C220   1.205       .  T
C221        C222   1.205       .  T
C222        C223   1.412       .  S
C223        C224   1.205       .  T
C225        C226   1.205       .  T
C226        C227   1.412       .  S
C227        C228   1.205       .  T
C229        C230   1.205       .  T
C230        C231   1.412       .  S
C231        C232   1.205       .  T
C233        C234   1.205       .  T
C234        C235   1.412       .  S
C235        C236   1.205       .  T
C237        C238   1.205       .  T
C238        C239   1.412       .  S
C239        C240   1.205       .  T
C241        C242   1.205       .  T
C242        C243   1.412       .  S
C243        C244   1.205       .  T
N245        N246   1.321       .  A
N245        N251   1.316       .  A
N245       Mn518   2.202   1_565  S
N246        C253   1.351       .  A
N247        N249   1.316       .  A
N247        N248   1.321       .  A
N247       Mn751   2.202   1_554  S
N248        C254   1.351       .  A
N249        N250   1.321       .  A
N250        C254   1.351       .  A
N251        N252   1.321       .  A
N251       Mn263   2.202   1_554  S
N252        C253   1.351       .  A
C253        C366   1.435       .  S
C254        C346   1.435       .  S
N255        N261   1.316       .  A
N255        N256   1.321       .  A
N256        C264   1.351       .  A
N257        N258   1.321       .  A
N257        N259   1.316       .  A
N257       Mn385   2.202       .  S
N258        C265   1.351       .  A
N259        N260   1.321       .  A
N259       Mn529   2.202   1_565  S
N260        C265   1.351       .  A
N261        N262   1.321       .  A
N261       Mn873   2.202       .  S
N262        C264   1.351       .  A
Mn263       N735   2.202   1_556  S
Mn263       N379   2.202       .  S
Mn263       N871   2.202       .  S
Mn263      Cl531   2.547   1_565  S
C264        C359   1.435       .  S
C265        C354   1.435       .  S
N266        N267   1.321       .  A
N266        N272   1.316       .  A
N266       Mn274   2.202       .  S
N267        C275   1.351       .  A
N268        N270   1.316       .  A
N268        N269   1.321       .  A
N268       Mn774   2.202   1_554  S
N269        C276   1.351       .  A
N270        N271   1.321       .  A
N270       Mn762   2.202       .  S
N271        C276   1.351       .  A
N272        N273   1.321       .  A
N272       Mn286   2.202   1_554  S
N273        C275   1.351       .  A
Mn274       N489   2.202   1_455  S
Mn274       N758   2.202   1_455  S
Mn274      Cl287   2.548   1_554  S
C275        C338   1.435       .  S
C276        C347   1.435       .  S
N277        N278   1.321       .  A
N277        N283   1.316       .  A
N277       Mn773   2.202       .  S
N278        C288   1.351       .  A
N279        N280   1.321       .  A
N279        N281   1.316       .  A
N279       Mn408   2.202       .  S
N280        C289   1.351       .  A
N281        N282   1.321       .  A
N281       Mn285   2.202       .  S
N282        C289   1.351       .  A
N283        N284   1.321       .  A
N283       Mn896   2.202       .  S
N284        C288   1.351       .  A
Mn285       N503   2.202   1_455  S
Mn285       N765   2.202   1_455  S
Mn285      Cl409   2.548       .  S
Mn286       N756   2.202   1_456  S
Mn286       N401   2.202       .  S
Mn286       N893   2.202   1_455  S
Mn286      Cl287   2.547       .  S
Cl287      Mn507   2.547       .  S
Cl287      Mn407   2.548       .  S
C288        C355   1.435       .  S
C289        C342   1.435       .  S
N290        N291   1.321       .  A
N290        N296   1.316       .  A
N290       Mn319   2.202       .  S
N291        C298   1.351       .  A
N292        N294   1.316       .  A
N292        N293   1.321       .  A
N292       Mn308   2.202       .  S
N293        C299   1.351       .  A
N294        N295   1.321       .  A
N294       Mn319   2.202       .  S
N295        C299   1.351       .  A
N296        N297   1.321       .  A
N296       Mn308   2.202       .  S
N297        C298   1.351       .  A
C298        C351   1.435       .  S
C299        C362   1.435       .  S
N300        N306   1.316       .  A
N300        N301   1.321       .  A
N300       Mn330   2.202       .  S
N301        C309   1.351       .  A
N302        N303   1.321       .  A
N302        N304   1.316       .  A
N302       Mn308   2.202       .  S
N303        C310   1.351       .  A
N304        N305   1.321       .  A
N304       Mn330   2.202       .  S
N305        C310   1.351       .  A
N306        N307   1.321       .  A
N306       Mn308   2.202       .  S
N307        C309   1.351       .  A
Mn308      Cl332   2.547       .  S
C309        C343   1.435       .  S
C310        C363   1.435       .  S
N311        N312   1.321       .  A
N311        N317   1.316       .  A
N311       Mn319   2.202       .  S
N312        C320   1.351       .  A
N313        N315   1.316       .  A
N313        N314   1.321       .  A
N313       Mn331   2.202       .  S
N314        C321   1.351       .  A
N315        N316   1.321       .  A
N315       Mn319   2.202       .  S
N316        C321   1.351       .  A
N317        N318   1.321       .  A
N317       Mn331   2.202       .  S
N318        C320   1.351       .  A
Mn319      Cl332   2.548       .  S
C320        C339   1.435       .  S
C321        C358   1.435       .  S
N322        N323   1.321       .  A
N322        N328   1.316       .  A
N322       Mn330   2.202       .  S
N323        C333   1.351       .  A
N324        N325   1.321       .  A
N324        N326   1.316       .  A
N324       Mn331   2.202       .  S
N325        C334   1.351       .  A
N326        N327   1.321       .  A
N326       Mn330   2.202       .  S
N327        C334   1.351       .  A
N328        N329   1.321       .  A
N328       Mn331   2.202       .  S
N329        C333   1.351       .  A
Mn330      Cl332   2.548       .  S
Mn331      Cl332   2.547       .  S
C333        C350   1.435       .  S
C334        C335   1.435       .  S
C335        C336   1.205       .  T
C336        C337   1.412       .  S
C337        C338   1.205       .  T
C339        C340   1.205       .  T
C340        C341   1.412       .  S
C341        C342   1.205       .  T
C343        C344   1.205       .  T
C344        C345   1.412       .  S
C345        C346   1.205       .  T
C347        C348   1.205       .  T
C348        C349   1.412       .  S
C349        C350   1.205       .  T
C351        C352   1.205       .  T
C352        C353   1.412       .  S
C353        C354   1.205       .  T
C355        C356   1.205       .  T
C356        C357   1.412       .  S
C357        C358   1.205       .  T
C359        C360   1.205       .  T
C360        C361   1.412       .  S
C361        C362   1.205       .  T
C363        C364   1.205       .  T
C364        C365   1.412       .  S
C365        C366   1.205       .  T
N367        N368   1.321       .  A
N367        N373   1.316       .  A
N367       Mn640   2.202   1_565  S
N368        C375   1.351       .  A
N369        N371   1.316       .  A
N369        N370   1.321       .  A
N369       Mn873   2.202       .  S
N370        C376   1.351       .  A
N371        N372   1.321       .  A
N372        C376   1.351       .  A
N373        N374   1.321       .  A
N373       Mn385   2.202       .  S
N374        C375   1.351       .  A
C375        C488   1.435       .  S
C376        C468   1.435       .  S
N377        N383   1.316       .  A
N377        N378   1.321       .  A
N378        C386   1.351       .  A
N379        N380   1.321       .  A
N379        N381   1.316       .  A
N380        C387   1.351       .  A
N381        N382   1.321       .  A
N381       Mn651   2.202   1_565  S
N382        C387   1.351       .  A
N383        N384   1.321       .  A
N383       Mn751   2.202       .  S
N384        C386   1.351       .  A
Mn385       N857   2.202       .  S
Mn385       N749   2.202       .  S
Mn385      Cl653   2.547   1_565  S
C386        C481   1.435       .  S
C387        C476   1.435       .  S
N388        N389   1.321       .  A
N388        N394   1.316       .  A
N388       Mn396   2.202       .  S
N389        C397   1.351       .  A
N390        N392   1.316       .  A
N390        N391   1.321       .  A
N390       Mn896   2.202       .  S
N391        C398   1.351       .  A
N392        N393   1.321       .  A
N392       Mn884   2.202       .  S
N393        C398   1.351       .  A
N394        N395   1.321       .  A
N394       Mn408   2.202       .  S
N395        C397   1.351       .  A
Mn396       N611   2.202   1_455  S
Mn396       N880   2.202   1_455  S
Mn396      Cl409   2.548       .  S
C397        C460   1.435       .  S
C398        C469   1.435       .  S
N399        N400   1.321       .  A
N399        N405   1.316       .  A
N399       Mn895   2.202       .  S
N400        C410   1.351       .  A
N401        N402   1.321       .  A
N401        N403   1.316       .  A
N402        C411   1.351       .  A
N403        N404   1.321       .  A
N403       Mn407   2.202       .  S
N404        C411   1.351       .  A
N405        N406   1.321       .  A
N405       Mn774   2.202       .  S
N406        C410   1.351       .  A
Mn407       N625   2.202   1_455  S
Mn407       N887   2.202   1_455  S
Mn408       N878   2.202   1_455  S
Mn408       N771   2.202   1_455  S
Mn408      Cl409   2.547       .  S
Cl409      Mn629   2.547       .  S
C410        C477   1.435       .  S
C411        C464   1.435       .  S
N412        N413   1.321       .  A
N412        N418   1.316       .  A
N412       Mn441   2.202       .  S
N413        C420   1.351       .  A
N414        N416   1.316       .  A
N414        N415   1.321       .  A
N414       Mn430   2.202       .  S
N415        C421   1.351       .  A
N416        N417   1.321       .  A
N416       Mn441   2.202       .  S
N417        C421   1.351       .  A
N418        N419   1.321       .  A
N418       Mn430   2.202       .  S
N419        C420   1.351       .  A
C420        C473   1.435       .  S
C421        C484   1.435       .  S
N422        N428   1.316       .  A
N422        N423   1.321       .  A
N422       Mn452   2.202       .  S
N423        C431   1.351       .  A
N424        N425   1.321       .  A
N424        N426   1.316       .  A
N424       Mn430   2.202       .  S
N425        C432   1.351       .  A
N426        N427   1.321       .  A
N426       Mn452   2.202       .  S
N427        C432   1.351       .  A
N428        N429   1.321       .  A
N428       Mn430   2.202       .  S
N429        C431   1.351       .  A
Mn430      Cl454   2.547       .  S
C431        C465   1.435       .  S
C432        C485   1.435       .  S
N433        N434   1.321       .  A
N433        N439   1.316       .  A
N433       Mn441   2.202       .  S
N434        C442   1.351       .  A
N435        N437   1.316       .  A
N435        N436   1.321       .  A
N435       Mn453   2.202       .  S
N436        C443   1.351       .  A
N437        N438   1.321       .  A
N437       Mn441   2.202       .  S
N438        C443   1.351       .  A
N439        N440   1.321       .  A
N439       Mn453   2.202       .  S
N440        C442   1.351       .  A
Mn441      Cl454   2.548       .  S
C442        C461   1.435       .  S
C443        C480   1.435       .  S
N444        N445   1.321       .  A
N444        N450   1.316       .  A
N444       Mn452   2.202       .  S
N445        C455   1.351       .  A
N446        N447   1.321       .  A
N446        N448   1.316       .  A
N446       Mn453   2.202       .  S
N447        C456   1.351       .  A
N448        N449   1.321       .  A
N448       Mn452   2.202       .  S
N449        C456   1.351       .  A
N450        N451   1.321       .  A
N450       Mn453   2.202       .  S
N451        C455   1.351       .  A
Mn452      Cl454   2.548       .  S
Mn453      Cl454   2.547       .  S
C455        C472   1.435       .  S
C456        C457   1.435       .  S
C457        C458   1.205       .  T
C458        C459   1.412       .  S
C459        C460   1.205       .  T
C461        C462   1.205       .  T
C462        C463   1.412       .  S
C463        C464   1.205       .  T
C465        C466   1.205       .  T
C466        C467   1.412       .  S
C467        C468   1.205       .  T
C469        C470   1.205       .  T
C470        C471   1.412       .  S
C471        C472   1.205       .  T
C473        C474   1.205       .  T
C474        C475   1.412       .  S
C475        C476   1.205       .  T
C477        C478   1.205       .  T
C478        C479   1.412       .  S
C479        C480   1.205       .  T
C481        C482   1.205       .  T
C482        C483   1.412       .  S
C483        C484   1.205       .  T
C485        C486   1.205       .  T
C486        C487   1.412       .  S
C487        C488   1.205       .  T
N489        N490   1.321       .  A
N489        N495   1.316       .  A
N490        C497   1.351       .  A
N491        N493   1.316       .  A
N491        N492   1.321       .  A
N492        C498   1.351       .  A
N493        N494   1.321       .  A
N493       Mn762   2.202       .  S
N494        C498   1.351       .  A
N495        N496   1.321       .  A
N495       Mn507   2.202   1_654  S
N496        C497   1.351       .  A
C497        C610   1.435       .  S
C498        C590   1.435       .  S
N499        N505   1.316       .  A
N499        N500   1.321       .  A
N499       Mn773   2.202       .  S
N500        C508   1.351       .  A
N501        N502   1.321       .  A
N501        N503   1.316       .  A
N501       Mn629   2.202   1_655  S
N502        C509   1.351       .  A
N503        N504   1.321       .  A
N504        C509   1.351       .  A
N505        N506   1.321       .  A
N506        C508   1.351       .  A
Mn507       N623   2.202   1_455  S
C508        C603   1.435       .  S
C509        C598   1.435       .  S
N510        N511   1.321       .  A
N510        N516   1.316       .  A
N510       Mn518   2.202       .  S
N511        C519   1.351       .  A
N512        N514   1.316       .  A
N512        N513   1.321       .  A
N513        C520   1.351       .  A
N514        N515   1.321       .  A
N515        C520   1.351       .  A
N516        N517   1.321       .  A
N516       Mn530   2.202   1_554  S
N517        C519   1.351       .  A
Mn518       N737   2.202   1_545  S
Mn518      Cl531   2.548   1_554  S
C519        C582   1.435       .  S
C520        C591   1.435       .  S
N521        N522   1.321       .  A
N521        N527   1.316       .  A
N522        C532   1.351       .  A
N523        N524   1.321       .  A
N523        N525   1.316       .  A
N523       Mn652   2.202       .  S
N524        C533   1.351       .  A
N525        N526   1.321       .  A
N525       Mn529   2.202       .  S
N526        C533   1.351       .  A
N527        N528   1.321       .  A
N528        C532   1.351       .  A
Mn529       N743   2.202   1_545  S
Mn529      Cl653   2.548       .  S
Mn530       N645   2.202       .  S
Mn530      Cl531   2.547       .  S
Cl531      Mn651   2.548       .  S
C532        C599   1.435       .  S
C533        C586   1.435       .  S
N534        N535   1.321       .  A
N534        N540   1.316       .  A
N534       Mn563   2.202       .  S
N535        C542   1.351       .  A
N536        N538   1.316       .  A
N536        N537   1.321       .  A
N536       Mn552   2.202       .  S
N537        C543   1.351       .  A
N538        N539   1.321       .  A
N538       Mn563   2.202       .  S
N539        C543   1.351       .  A
N540        N541   1.321       .  A
N540       Mn552   2.202       .  S
N541        C542   1.351       .  A
C542        C595   1.435       .  S
C543        C606   1.435       .  S
N544        N550   1.316       .  A
N544        N545   1.321       .  A
N544       Mn574   2.202       .  S
N545        C553   1.351       .  A
N546        N547   1.321       .  A
N546        N548   1.316       .  A
N546       Mn552   2.202       .  S
N547        C554   1.351       .  A
N548        N549   1.321       .  A
N548       Mn574   2.202       .  S
N549        C554   1.351       .  A
N550        N551   1.321       .  A
N550       Mn552   2.202       .  S
N551        C553   1.351       .  A
Mn552      Cl576   2.547       .  S
C553        C587   1.435       .  S
C554        C607   1.435       .  S
N555        N556   1.321       .  A
N555        N561   1.316       .  A
N555       Mn563   2.202       .  S
N556        C564   1.351       .  A
N557        N559   1.316       .  A
N557        N558   1.321       .  A
N557       Mn575   2.202       .  S
N558        C565   1.351       .  A
N559        N560   1.321       .  A
N559       Mn563   2.202       .  S
N560        C565   1.351       .  A
N561        N562   1.321       .  A
N561       Mn575   2.202       .  S
N562        C564   1.351       .  A
Mn563      Cl576   2.548       .  S
C564        C583   1.435       .  S
C565        C602   1.435       .  S
N566        N567   1.321       .  A
N566        N572   1.316       .  A
N566       Mn574   2.202       .  S
N567        C577   1.351       .  A
N568        N569   1.321       .  A
N568        N570   1.316       .  A
N568       Mn575   2.202       .  S
N569        C578   1.351       .  A
N570        N571   1.321       .  A
N570       Mn574   2.202       .  S
N571        C578   1.351       .  A
N572        N573   1.321       .  A
N572       Mn575   2.202       .  S
N573        C577   1.351       .  A
Mn574      Cl576   2.548       .  S
Mn575      Cl576   2.547       .  S
C577        C594   1.435       .  S
C578        C579   1.435       .  S
C579        C580   1.205       .  T
C580        C581   1.412       .  S
C581        C582   1.205       .  T
C583        C584   1.205       .  T
C584        C585   1.412       .  S
C585        C586   1.205       .  T
C587        C588   1.205       .  T
C588        C589   1.412       .  S
C589        C590   1.205       .  T
C591        C592   1.205       .  T
C592        C593   1.412       .  S
C593        C594   1.205       .  T
C595        C596   1.205       .  T
C596        C597   1.412       .  S
C597        C598   1.205       .  T
C599        C600   1.205       .  T
C600        C601   1.412       .  S
C601        C602   1.205       .  T
C603        C604   1.205       .  T
C604        C605   1.412       .  S
C605        C606   1.205       .  T
C607        C608   1.205       .  T
C608        C609   1.412       .  S
C609        C610   1.205       .  T
N611        N612   1.321       .  A
N611        N617   1.316       .  A
N612        C619   1.351       .  A
N613        N615   1.316       .  A
N613        N614   1.321       .  A
N614        C620   1.351       .  A
N615        N616   1.321       .  A
N615       Mn884   2.202       .  S
N616        C620   1.351       .  A
N617        N618   1.321       .  A
N617       Mn629   2.202   1_655  S
N618        C619   1.351       .  A
C619        C732   1.435       .  S
C620        C712   1.435       .  S
N621        N627   1.316       .  A
N621        N622   1.321       .  A
N621       Mn895   2.202       .  S
N622        C630   1.351       .  A
N623        N624   1.321       .  A
N623        N625   1.316       .  A
N624        C631   1.351       .  A
N625        N626   1.321       .  A
N626        C631   1.351       .  A
N627        N628   1.321       .  A
N628        C630   1.351       .  A
C630        C725   1.435       .  S
C631        C720   1.435       .  S
N632        N633   1.321       .  A
N632        N638   1.316       .  A
N632       Mn640   2.202       .  S
N633        C641   1.351       .  A
N634        N636   1.316       .  A
N634        N635   1.321       .  A
N635        C642   1.351       .  A
N636        N637   1.321       .  A
N637        C642   1.351       .  A
N638        N639   1.321       .  A
N638       Mn652   2.202       .  S
N639        C641   1.351       .  A
Mn640       N859   2.202   1_545  S
Mn640      Cl653   2.548       .  S
C641        C704   1.435       .  S
C642        C713   1.435       .  S
N643        N644   1.321       .  A
N643        N649   1.316       .  A
N644        C654   1.351       .  A
N645        N646   1.321       .  A
N645        N647   1.316       .  A
N646        C655   1.351       .  A
N647        N648   1.321       .  A
N647       Mn651   2.202       .  S
N648        C655   1.351       .  A
N649        N650   1.321       .  A
N650        C654   1.351       .  A
Mn651       N865   2.202   1_545  S
Mn652      Cl653   2.547       .  S
C654        C721   1.435       .  S
C655        C708   1.435       .  S
N656        N657   1.321       .  A
N656        N662   1.316       .  A
N656       Mn685   2.202       .  S
N657        C664   1.351       .  A
N658        N660   1.316       .  A
N658        N659   1.321       .  A
N658       Mn674   2.202       .  S
N659        C665   1.351       .  A
N660        N661   1.321       .  A
N660       Mn685   2.202       .  S
N661        C665   1.351       .  A
N662        N663   1.321       .  A
N662       Mn674   2.202       .  S
N663        C664   1.351       .  A
C664        C717   1.435       .  S
C665        C728   1.435       .  S
N666        N672   1.316       .  A
N666        N667   1.321       .  A
N666       Mn696   2.202       .  S
N667        C675   1.351       .  A
N668        N669   1.321       .  A
N668        N670   1.316       .  A
N668       Mn674   2.202       .  S
N669        C676   1.351       .  A
N670        N671   1.321       .  A
N670       Mn696   2.202       .  S
N671        C676   1.351       .  A
N672        N673   1.321       .  A
N672       Mn674   2.202       .  S
N673        C675   1.351       .  A
Mn674      Cl698   2.547       .  S
C675        C709   1.435       .  S
C676        C729   1.435       .  S
N677        N678   1.321       .  A
N677        N683   1.316       .  A
N677       Mn685   2.202       .  S
N678        C686   1.351       .  A
N679        N681   1.316       .  A
N679        N680   1.321       .  A
N679       Mn697   2.202       .  S
N680        C687   1.351       .  A
N681        N682   1.321       .  A
N681       Mn685   2.202       .  S
N682        C687   1.351       .  A
N683        N684   1.321       .  A
N683       Mn697   2.202       .  S
N684        C686   1.351       .  A
Mn685      Cl698   2.548       .  S
C686        C705   1.435       .  S
C687        C724   1.435       .  S
N688        N689   1.321       .  A
N688        N694   1.316       .  A
N688       Mn696   2.202       .  S
N689        C699   1.351       .  A
N690        N691   1.321       .  A
N690        N692   1.316       .  A
N690       Mn697   2.202       .  S
N691        C700   1.351       .  A
N692        N693   1.321       .  A
N692       Mn696   2.202       .  S
N693        C700   1.351       .  A
N694        N695   1.321       .  A
N694       Mn697   2.202       .  S
N695        C699   1.351       .  A
Mn696      Cl698   2.548       .  S
Mn697      Cl698   2.547       .  S
C699        C716   1.435       .  S
C700        C701   1.435       .  S
C701        C702   1.205       .  T
C702        C703   1.412       .  S
C703        C704   1.205       .  T
C705        C706   1.205       .  T
C706        C707   1.412       .  S
C707        C708   1.205       .  T
C709        C710   1.205       .  T
C710        C711   1.412       .  S
C711        C712   1.205       .  T
C713        C714   1.205       .  T
C714        C715   1.412       .  S
C715        C716   1.205       .  T
C717        C718   1.205       .  T
C718        C719   1.412       .  S
C719        C720   1.205       .  T
C721        C722   1.205       .  T
C722        C723   1.412       .  S
C723        C724   1.205       .  T
C725        C726   1.205       .  T
C726        C727   1.412       .  S
C727        C728   1.205       .  T
C729        C730   1.205       .  T
C730        C731   1.412       .  S
C731        C732   1.205       .  T
N733        N734   1.321       .  A
N733        N739   1.316       .  A
N734        C741   1.351       .  A
N735        N737   1.316       .  A
N735        N736   1.321       .  A
N736        C742   1.351       .  A
N737        N738   1.321       .  A
N738        C742   1.351       .  A
N739        N740   1.321       .  A
N739       Mn751   2.202   1_654  S
N740        C741   1.351       .  A
C741        C854   1.435       .  S
C742        C834   1.435       .  S
N743        N749   1.316       .  A
N743        N744   1.321       .  A
N744        C752   1.351       .  A
N745        N746   1.321       .  A
N745        N747   1.316       .  A
N745       Mn873   2.202   1_655  S
N746        C753   1.351       .  A
N747        N748   1.321       .  A
N748        C753   1.351       .  A
N749        N750   1.321       .  A
N750        C752   1.351       .  A
Mn751       N867   2.202   1_455  S
C752        C847   1.435       .  S
C753        C842   1.435       .  S
N754        N755   1.321       .  A
N754        N760   1.316       .  A
N754       Mn762   2.202       .  S
N755        C763   1.351       .  A
N756        N758   1.316       .  A
N756        N757   1.321       .  A
N757        C764   1.351       .  A
N758        N759   1.321       .  A
N759        C764   1.351       .  A
N760        N761   1.321       .  A
N760       Mn774   2.202   1_554  S
N761        C763   1.351       .  A
Mn762      Cl775   2.548   1_554  S
C763        C826   1.435       .  S
C764        C835   1.435       .  S
N765        N766   1.321       .  A
N765        N771   1.316       .  A
N766        C776   1.351       .  A
N767        N768   1.321       .  A
N767        N769   1.316       .  A
N767       Mn896   2.202       .  S
N768        C777   1.351       .  A
N769        N770   1.321       .  A
N769       Mn773   2.202       .  S
N770        C777   1.351       .  A
N771        N772   1.321       .  A
N772        C776   1.351       .  A
Mn773      Cl897   2.548       .  S
Mn774       N889   2.202       .  S
Mn774      Cl775   2.547       .  S
Cl775      Mn895   2.548       .  S
C776        C843   1.435       .  S
C777        C830   1.435       .  S
N778        N779   1.321       .  A
N778        N784   1.316       .  A
N778       Mn807   2.202       .  S
N779        C786   1.351       .  A
N780        N782   1.316       .  A
N780        N781   1.321       .  A
N780       Mn796   2.202       .  S
N781        C787   1.351       .  A
N782        N783   1.321       .  A
N782       Mn807   2.202       .  S
N783        C787   1.351       .  A
N784        N785   1.321       .  A
N784       Mn796   2.202       .  S
N785        C786   1.351       .  A
C786        C839   1.435       .  S
C787        C850   1.435       .  S
N788        N794   1.316       .  A
N788        N789   1.321       .  A
N788       Mn818   2.202       .  S
N789        C797   1.351       .  A
N790        N791   1.321       .  A
N790        N792   1.316       .  A
N790       Mn796   2.202       .  S
N791        C798   1.351       .  A
N792        N793   1.321       .  A
N792       Mn818   2.202       .  S
N793        C798   1.351       .  A
N794        N795   1.321       .  A
N794       Mn796   2.202       .  S
N795        C797   1.351       .  A
Mn796      Cl820   2.547       .  S
C797        C831   1.435       .  S
C798        C851   1.435       .  S
N799        N800   1.321       .  A
N799        N805   1.316       .  A
N799       Mn807   2.202       .  S
N800        C808   1.351       .  A
N801        N803   1.316       .  A
N801        N802   1.321       .  A
N801       Mn819   2.202       .  S
N802        C809   1.351       .  A
N803        N804   1.321       .  A
N803       Mn807   2.202       .  S
N804        C809   1.351       .  A
N805        N806   1.321       .  A
N805       Mn819   2.202       .  S
N806        C808   1.351       .  A
Mn807      Cl820   2.548       .  S
C808        C827   1.435       .  S
C809        C846   1.435       .  S
N810        N811   1.321       .  A
N810        N816   1.316       .  A
N810       Mn818   2.202       .  S
N811        C821   1.351       .  A
N812        N813   1.321       .  A
N812        N814   1.316       .  A
N812       Mn819   2.202       .  S
N813        C822   1.351       .  A
N814        N815   1.321       .  A
N814       Mn818   2.202       .  S
N815        C822   1.351       .  A
N816        N817   1.321       .  A
N816       Mn819   2.202       .  S
N817        C821   1.351       .  A
Mn818      Cl820   2.548       .  S
Mn819      Cl820   2.547       .  S
C821        C838   1.435       .  S
C822        C823   1.435       .  S
C823        C824   1.205       .  T
C824        C825   1.412       .  S
C825        C826   1.205       .  T
C827        C828   1.205       .  T
C828        C829   1.412       .  S
C829        C830   1.205       .  T
C831        C832   1.205       .  T
C832        C833   1.412       .  S
C833        C834   1.205       .  T
C835        C836   1.205       .  T
C836        C837   1.412       .  S
C837        C838   1.205       .  T
C839        C840   1.205       .  T
C840        C841   1.412       .  S
C841        C842   1.205       .  T
C843        C844   1.205       .  T
C844        C845   1.412       .  S
C845        C846   1.205       .  T
C847        C848   1.205       .  T
C848        C849   1.412       .  S
C849        C850   1.205       .  T
C851        C852   1.205       .  T
C852        C853   1.412       .  S
C853        C854   1.205       .  T
N855        N856   1.321       .  A
N855        N861   1.316       .  A
N856        C863   1.351       .  A
N857        N859   1.316       .  A
N857        N858   1.321       .  A
N858        C864   1.351       .  A
N859        N860   1.321       .  A
N860        C864   1.351       .  A
N861        N862   1.321       .  A
N861       Mn873   2.202   1_655  S
N862        C863   1.351       .  A
C863        C976   1.435       .  S
C864        C956   1.435       .  S
N865        N871   1.316       .  A
N865        N866   1.321       .  A
N866        C874   1.351       .  A
N867        N868   1.321       .  A
N867        N869   1.316       .  A
N868        C875   1.351       .  A
N869        N870   1.321       .  A
N870        C875   1.351       .  A
N871        N872   1.321       .  A
N872        C874   1.351       .  A
C874        C969   1.435       .  S
C875        C964   1.435       .  S
N876        N877   1.321       .  A
N876        N882   1.316       .  A
N876       Mn884   2.202       .  S
N877        C885   1.351       .  A
N878        N880   1.316       .  A
N878        N879   1.321       .  A
N879        C886   1.351       .  A
N880        N881   1.321       .  A
N881        C886   1.351       .  A
N882        N883   1.321       .  A
N882       Mn896   2.202       .  S
N883        C885   1.351       .  A
Mn884      Cl897   2.548       .  S
C885        C948   1.435       .  S
C886        C957   1.435       .  S
N887        N888   1.321       .  A
N887        N893   1.316       .  A
N888        C898   1.351       .  A
N889        N890   1.321       .  A
N889        N891   1.316       .  A
N890        C899   1.351       .  A
N891        N892   1.321       .  A
N891       Mn895   2.202       .  S
N892        C899   1.351       .  A
N893        N894   1.321       .  A
N894        C898   1.351       .  A
Mn896      Cl897   2.547       .  S
C898        C965   1.435       .  S
C899        C952   1.435       .  S
N900        N901   1.321       .  A
N900        N906   1.316       .  A
N900       Mn929   2.202       .  S
N901        C908   1.351       .  A
N902        N904   1.316       .  A
N902        N903   1.321       .  A
N902       Mn918   2.202       .  S
N903        C909   1.351       .  A
N904        N905   1.321       .  A
N904       Mn929   2.202       .  S
N905        C909   1.351       .  A
N906        N907   1.321       .  A
N906       Mn918   2.202       .  S
N907        C908   1.351       .  A
C908        C961   1.435       .  S
C909        C972   1.435       .  S
N910        N916   1.316       .  A
N910        N911   1.321       .  A
N910       Mn940   2.202       .  S
N911        C919   1.351       .  A
N912        N913   1.321       .  A
N912        N914   1.316       .  A
N912       Mn918   2.202       .  S
N913        C920   1.351       .  A
N914        N915   1.321       .  A
N914       Mn940   2.202       .  S
N915        C920   1.351       .  A
N916        N917   1.321       .  A
N916       Mn918   2.202       .  S
N917        C919   1.351       .  A
Mn918      Cl942   2.547       .  S
C919        C953   1.435       .  S
C920        C973   1.435       .  S
N921        N922   1.321       .  A
N921        N927   1.316       .  A
N921       Mn929   2.202       .  S
N922        C930   1.351       .  A
N923        N925   1.316       .  A
N923        N924   1.321       .  A
N923       Mn941   2.202       .  S
N924        C931   1.351       .  A
N925        N926   1.321       .  A
N925       Mn929   2.202       .  S
N926        C931   1.351       .  A
N927        N928   1.321       .  A
N927       Mn941   2.202       .  S
N928        C930   1.351       .  A
Mn929      Cl942   2.548       .  S
C930        C949   1.435       .  S
C931        C968   1.435       .  S
N932        N933   1.321       .  A
N932        N938   1.316       .  A
N932       Mn940   2.202       .  S
N933        C943   1.351       .  A
N934        N935   1.321       .  A
N934        N936   1.316       .  A
N934       Mn941   2.202       .  S
N935        C944   1.351       .  A
N936        N937   1.321       .  A
N936       Mn940   2.202       .  S
N937        C944   1.351       .  A
N938        N939   1.321       .  A
N938       Mn941   2.202       .  S
N939        C943   1.351       .  A
Mn940      Cl942   2.548       .  S
Mn941      Cl942   2.547       .  S
C943        C960   1.435       .  S
C944        C945   1.435       .  S
C945        C946   1.205       .  T
C946        C947   1.412       .  S
C947        C948   1.205       .  T
C949        C950   1.205       .  T
C950        C951   1.412       .  S
C951        C952   1.205       .  T
C953        C954   1.205       .  T
C954        C955   1.412       .  S
C955        C956   1.205       .  T
C957        C958   1.205       .  T
C958        C959   1.412       .  S
C959        C960   1.205       .  T
C961        C962   1.205       .  T
C962        C963   1.412       .  S
C963        C964   1.205       .  T
C965        C966   1.205       .  T
C966        C967   1.412       .  S
C967        C968   1.205       .  T
C969        C970   1.205       .  T
C970        C971   1.412       .  S
C971        C972   1.205       .  T
C973        C974   1.205       .  T
C974        C975   1.412       .  S
C975        C976   1.205       .  T
