geometry optimzed in LAMMPS
_audit_creation_date              2020-11-30 
_audit_creation_method            'lammps2cif' 
_symmetry_space_group_name_H-M    'P1' 
_symmetry_Int_Tables_number       1 
_symmetry_cell_setting            triclinic 
loop_ 
_symmetry_equiv_pos_as_xyz 
  x,y,z 
_cell_length_a                    57.16041756 
_cell_length_b                    57.12276313047509 
_cell_length_c                    57.548167122886355 
_cell_angle_alpha                 90.26595117931076 
_cell_angle_beta                  89.73246315194126 
_cell_angle_gamma                 89.98420533456188 
loop_ 
_atom_site_label 
_atom_site_type_symbol 
_atom_site_fract_x 
_atom_site_fract_y 
_atom_site_fract_z 
_atom_site_charge 
N1          N  0.48463542  0.23502376  0.73286247    -0.01500
C2          C  0.48589750  0.25294784  0.71743716     0.01100
C3          C  0.49022541  0.27378182  0.72893628    -0.21800
C4          C  0.49132985  0.26862273  0.75218626    -0.22000
C5          C  0.48776139  0.24476857  0.75422619     0.00900
H6          H  0.49111534  0.29107171  0.72137782     0.14700
H7          H  0.49344676  0.28109961  0.76622908     0.14800
N8          N  0.43947876  0.20183863  0.95302873    -0.25400
N9          N  0.42130138  0.19262983  0.94218312    -0.33200
C10         C  0.42714238  0.18867197  0.91982148     0.03000
C11         C  0.44998593  0.19597931  0.91627377     0.09000
C12         C  0.45723976  0.20421008  0.93776491    -0.04100
H13         H  0.41501148  0.18278445  0.90664188     0.09700
H14         H  0.47376197  0.21252269  0.94172146     0.10900
Cu15       Cu  0.38816387  0.18962590  0.95711802     0.44200
Cu16       Cu  0.43826174  0.21392816  0.98717911     0.42000
Cu17       Cu  0.38123695  0.21461443  0.01490126     0.43900
N18         N  0.35645175  0.19044521  0.97510823    -0.32700
N19         N  0.35403721  0.19921340  0.99625527    -0.27000
C20         C  0.33151540  0.19724753  0.00284867    -0.03100
C21         C  0.31881742  0.18687679  0.98495197     0.09100
C22         C  0.33546677  0.18290397  0.96763239     0.02900
H23         H  0.32512592  0.20289853  0.01964249     0.10600
H24         H  0.33264162  0.17568370  0.95050250     0.09600
N25         N  0.41113344  0.22915155  0.02978284    -0.34200
N26         N  0.43210583  0.22807754  0.02002429    -0.26400
C27         C  0.44775958  0.23828488  0.03425514    -0.01600
C28         C  0.43606278  0.24652339  0.05378059     0.07000
C29         C  0.41286148  0.24041697  0.05031699     0.05100
H30         H  0.46625276  0.23988773  0.03049460     0.10200
H31         H  0.39836734  0.24349082  0.06210726     0.09000
N32         N  0.49223501  0.30669525  0.22829955    -0.01500
C33         C  0.48913519  0.28998781  0.21163753     0.01100
C34         C  0.48956320  0.26796085  0.22138840    -0.21800
C35         C  0.49288942  0.27101737  0.24476716    -0.22000
C36         C  0.49431941  0.29488409  0.24871230     0.00900
H37         H  0.48651094  0.25147754  0.21256327     0.14700
H38         H  0.49266130  0.25732383  0.25769762     0.14800
N39         N  0.43419309  0.31838417  0.45044412    -0.25400
N40         N  0.41541101  0.32628342  0.43968082    -0.33200
C41         C  0.41964415  0.32727758  0.41678238     0.03000
C42         C  0.44215491  0.31946006  0.41249706     0.09000
C43         C  0.45099835  0.31413648  0.43435512    -0.04100
H44         H  0.40699865  0.33311808  0.40415188     0.09700
H45         H  0.46802881  0.30689903  0.43819765     0.10900
Cu46       Cu  0.38362660  0.33378074  0.45520139     0.44200
Cu47       Cu  0.43459208  0.31241117  0.48642754     0.42000
Cu48       Cu  0.37686732  0.32216133  0.51463644     0.43900
N49         N  0.35195454  0.33795714  0.47209944    -0.32700
N50         N  0.34925442  0.33363580  0.49443707    -0.27000
C51         C  0.32676266  0.33743309  0.50039970    -0.03100
C52         C  0.31471248  0.34453666  0.48074932     0.09100
C53         C  0.33134616  0.34460220  0.46314261     0.02900
H54         H  0.31982090  0.33540580  0.51778078     0.10600
H55         H  0.32865965  0.34874412  0.44504121     0.09600
N56         N  0.40619300  0.30895160  0.53112709    -0.34200
N57         N  0.42704249  0.30575420  0.52155355    -0.26400
C58         C  0.44135298  0.29644671  0.53764694    -0.01600
C59         C  0.42887485  0.29339707  0.55829665     0.07000
C60         C  0.40663450  0.30157548  0.55323222     0.05100
H61         H  0.45950724  0.29222904  0.53439653     0.10200
H62         H  0.39141996  0.30155730  0.56442459     0.09000
N63         N  0.07743862  0.89500964  0.48272909    -0.01500
C64         C  0.09549638  0.88042657  0.48795846     0.01100
C65         C  0.11429949  0.89317374  0.49617836    -0.21800
C66         C  0.10778480  0.91629147  0.49582681    -0.22000
C67         C  0.08516435  0.91707020  0.48744640     0.00900
H68         H  0.13133864  0.88649692  0.50089861     0.14700
H69         H  0.11867180  0.93107122  0.50047662     0.14800
N70         N  0.04966969  0.18506057  0.42412608    -0.25400
N71         N  0.04545020  0.19469214  0.40370167    -0.33200
C72         C  0.05524052  0.21607025  0.40304112     0.03000
C73         C  0.06608297  0.22030854  0.42407185     0.09000
C74         C  0.06204829  0.20033233  0.43712066    -0.04100
H75         H  0.05456285  0.22766808  0.38824376     0.09700
H76         H  0.06837498  0.19682043  0.45444453     0.10900
Cu77       Cu  0.02736629  0.17849995  0.37692520     0.44200
Cu78       Cu  0.04026339  0.15064760  0.43225989     0.42000
Cu79       Cu  0.01294615  0.11838255  0.38428167     0.43900
N80         N  0.01035524  0.15903079  0.35163397    -0.32700
N81         N  0.00546859  0.13657619  0.35406628    -0.27000
C82         C  0.99608874  0.12845828  0.33417120    -0.03100
C83         C  0.99480350  0.14679953  0.31854086     0.09100
C84         C  0.00402381  0.16587976  0.33024999     0.02900
H85         H  0.99091216  0.11047872  0.33120451     0.10600
H86         H  0.00706685  0.18318497  0.32330119     0.09600
N87         N  0.02204722  0.10361997  0.41589357    -0.34200
N88         N  0.03176027  0.11503215  0.43341884    -0.26400
C89         C  0.03654582  0.09961437  0.45043664    -0.01600
C90         C  0.02952962  0.07740820  0.44326743     0.07000
C91         C  0.02041607  0.08082285  0.42127714     0.05100
H92         H  0.04500703  0.10422639  0.46658441     0.10200
H93         H  0.01423157  0.06749574  0.40938332     0.09000
N94         N  0.14579131  0.39175678  0.46897065    -0.01500
C95         C  0.12649105  0.37862648  0.46453090     0.01100
C96         C  0.10657188  0.39224996  0.46610347    -0.21800
C97         C  0.11375547  0.41451209  0.47153117    -0.22000
C98         C  0.13788793  0.41387596  0.47301580     0.00900
H99         H  0.08877005  0.38671598  0.46287514     0.14700
H100        H  0.10266150  0.42982413  0.47280750     0.14800
N101        N  0.18247280  0.61614498  0.43388386    -0.25400
N102        N  0.19280284  0.60702386  0.41533592    -0.33200
C103        C  0.19402157  0.58371149  0.41760983     0.03000
C104        C  0.18405948  0.57761574  0.43862394     0.09000
C105        C  0.17704057  0.59864694  0.44865410    -0.04100
H106        H  0.20099810  0.57195203  0.40448666     0.09700
H107        H  0.16751109  0.60091047  0.46479627     0.10900
Cu108      Cu  0.20282793  0.62560174  0.38631149     0.44200
Cu109      Cu  0.17398083  0.65168888  0.43612258     0.42000
Cu110      Cu  0.18768750  0.68541849  0.38277028     0.43900
N111        N  0.20929634  0.64531786  0.35706064    -0.32700
N112        N  0.20363692  0.66763044  0.35542105    -0.27000
C113        C  0.20861349  0.67503019  0.33376146    -0.03100
C114        C  0.21787215  0.65634844  0.32116327     0.09100
C115        C  0.21797630  0.63784144  0.33663391     0.02900
H116        H  0.20542763  0.69260440  0.32764219     0.10600
H117        H  0.22288115  0.61989691  0.33305830     0.09600
N118        N  0.17087264  0.69880179  0.41205045    -0.34200
N119        N  0.16594831  0.68705545  0.43124084    -0.26400
C120        C  0.15496063  0.70156336  0.44629798    -0.01600
C121        C  0.15299746  0.72347716  0.43613554     0.07000
C122        C  0.16329682  0.72092930  0.41445200     0.05100
H123        H  0.14906761  0.69654311  0.46344027     0.10200
H124        H  0.16484072  0.73408379  0.40108549     0.09000
N125        N  0.23438738  0.75629771  0.49944438    -0.01500
C126        C  0.23165980  0.77521373  0.51374336     0.01100
C127        C  0.22728354  0.79501786  0.50075204    -0.21800
C128        C  0.22753476  0.78824252  0.47784185    -0.22000
C129        C  0.23212769  0.76445402  0.47731654     0.00900
H130        H  0.22521920  0.81274226  0.50715686     0.14700
H131        H  0.22532084  0.79965428  0.46305483     0.14800
N132        N  0.27899169  0.70075267  0.28138942    -0.25400
N133        N  0.29713161  0.69121413  0.29194809    -0.33200
C134        C  0.29227312  0.68949621  0.31478775     0.03000
C135        C  0.27010941  0.69855432  0.31899508     0.09000
C136        C  0.26218664  0.70528058  0.29725060    -0.04100
H137        H  0.30485934  0.68412076  0.32768093     0.09700
H138        H  0.24598192  0.71415550  0.29333314     0.10900
Cu139      Cu  0.32961453  0.68534318  0.27618021     0.44200
Cu140      Cu  0.27934531  0.71193840  0.24700763     0.42000
Cu141      Cu  0.33682438  0.71503356  0.22143465     0.43900
N142        N  0.36147526  0.68690945  0.25833443    -0.32700
N143        N  0.36411033  0.69881534  0.23884359    -0.27000
C144        C  0.38671573  0.69810338  0.23230823    -0.03100
C145        C  0.39898360  0.68491951  0.24826655     0.09100
C146        C  0.38239494  0.67799166  0.26451424     0.02900
H147        H  0.39368004  0.70639481  0.21690369     0.10600
H148        H  0.38543677  0.66781155  0.28002447     0.09600
N149        N  0.30694879  0.72753664  0.20521320    -0.34200
N150        N  0.28570878  0.72590548  0.21422755    -0.26400
C151        C  0.27020168  0.73485314  0.19909178    -0.01600
C152        C  0.28229850  0.74264221  0.17964921     0.07000
C153        C  0.30555565  0.73764540  0.18420940     0.05100
H154        H  0.25153545  0.73578658  0.20213388     0.10200
H155        H  0.32037730  0.74059141  0.17283405     0.09000
N156        N  0.22827425  0.80097146  0.00403227    -0.01500
C157        C  0.23196736  0.78256354  0.01852072     0.01100
C158        C  0.23302560  0.76191160  0.00595936    -0.21800
C159        C  0.23017722  0.76764473  0.98303608    -0.22000
C160        C  0.22762729  0.79168816  0.98219040     0.00900
H161        H  0.23692146  0.74467523  0.01265029     0.14700
H162        H  0.23173308  0.75575843  0.96841087     0.14800
N163        N  0.28890411  0.83355968  0.78520231    -0.25400
N164        N  0.30759679  0.84273864  0.79523797    -0.33200
C165        C  0.30380182  0.84442080  0.81825054     0.03000
C166        C  0.28166058  0.83597867  0.82320024     0.09000
C167        C  0.27264201  0.82933945  0.80177655    -0.04100
H168        H  0.31649123  0.85094639  0.83056928     0.09700
H169        H  0.25589334  0.82112822  0.79860830     0.10900
Cu170      Cu  0.33845074  0.85169061  0.77821796     0.44200
Cu171      Cu  0.28718023  0.82599630  0.74945704     0.42000
Cu172      Cu  0.34007341  0.84193712  0.71717483     0.43900
N173        N  0.36785761  0.85886949  0.75812261    -0.32700
N174        N  0.36825428  0.85574474  0.73537116    -0.27000
C175        C  0.38949219  0.86177776  0.72715179    -0.03100
C176        C  0.40327226  0.86880802  0.74568993     0.09100
C177        C  0.38893384  0.86669872  0.76507245     0.02900
H178        H  0.39474445  0.86041171  0.70912320     0.10600
H179        H  0.39347063  0.87053212  0.78290943     0.09600
N180        N  0.31041459  0.82748415  0.70200225    -0.34200
N181        N  0.29116179  0.82151083  0.71336495    -0.26400
C182        C  0.27549937  0.81313952  0.69789561    -0.01600
C183        C  0.28532827  0.81403347  0.67573534     0.07000
C184        C  0.30752303  0.82313536  0.67921951     0.05100
H185        H  0.25803698  0.80741231  0.70239361     0.10200
H186        H  0.32075717  0.82639150  0.66615128     0.09000
N187        N  0.74902815  0.74164188  0.73663224    -0.01500
C188        C  0.75248817  0.75961875  0.72160391     0.01100
C189        C  0.74987335  0.78075017  0.73323208    -0.21800
C190        C  0.74502932  0.77563657  0.75606951    -0.22000
C191        C  0.74486943  0.75155060  0.75774945     0.00900
H192        H  0.75229267  0.79806838  0.72606438     0.14700
H193        H  0.74353895  0.78810786  0.77021156     0.14800
N194        N  0.79193875  0.70718169  0.95761787    -0.25400
N195        N  0.80962488  0.69638691  0.94722331    -0.33200
C196        C  0.80456614  0.69336358  0.92460624     0.03000
C197        C  0.78275551  0.70290460  0.92028425     0.09000
C198        C  0.77523325  0.71143281  0.94170602    -0.04100
H199        H  0.81672368  0.68641976  0.91185367     0.09700
H200        H  0.75927098  0.72098002  0.94527100     0.10900
Cu201      Cu  0.84173385  0.68982109  0.96270419     0.44200
Cu202      Cu  0.79272764  0.71845356  0.99230456     0.42000
Cu203      Cu  0.84988778  0.71402040  0.01966292     0.43900
N204        N  0.87352702  0.68863157  0.98003664    -0.32700
N205        N  0.87653720  0.69739604  0.00109638    -0.27000
C206        C  0.89907495  0.69460047  0.00722753    -0.03100
C207        C  0.91094049  0.68376815  0.98902825     0.09100
C208        C  0.89409092  0.68023907  0.97210783     0.02900
H209        H  0.90643120  0.70076101  0.02341825     0.10600
H210        H  0.89658117  0.67227934  0.95519650     0.09600
N211        N  0.82076590  0.72932250  0.03547029    -0.34200
N212        N  0.79970168  0.73029378  0.02608042    -0.26400
C213        C  0.78488007  0.74049697  0.04142023    -0.01600
C214        C  0.79729998  0.74648256  0.06126681     0.07000
C215        C  0.81996731  0.73913297  0.05674985     0.05100
H216        H  0.76651470  0.74363765  0.03822719     0.10200
H217        H  0.83476890  0.74033410  0.06835066     0.09000
N218        N  0.74722838  0.81368489  0.23682994    -0.01500
C219        C  0.75331979  0.79500375  0.22337699     0.01100
C220        C  0.75467648  0.77507089  0.23686309    -0.21800
C221        C  0.74938294  0.78165973  0.25927008    -0.22000
C222        C  0.74501971  0.80541726  0.25882055     0.00900
H223        H  0.75973730  0.75772248  0.23111350     0.14700
H224        H  0.75008159  0.77061703  0.27448075     0.14800
N225        N  0.78386724  0.84776522  0.45883533    -0.25400
N226        N  0.80088048  0.85978061  0.44879566    -0.33200
C227        C  0.79519968  0.86402991  0.42661654     0.03000
C228        C  0.77366373  0.85405319  0.42207094     0.09000
C229        C  0.76692286  0.84395082  0.44300942    -0.04100
H230        H  0.80700147  0.87182444  0.41409311     0.09700
H231        H  0.75148805  0.83348534  0.44617142     0.10900
Cu232      Cu  0.83363672  0.86534922  0.46279389     0.44200
Cu233      Cu  0.78641458  0.83397448  0.49244110     0.42000
Cu234      Cu  0.84538578  0.83703507  0.51631903     0.43900
N235        N  0.86686149  0.86353799  0.47664028    -0.32700
N236        N  0.87117573  0.85327952  0.49667887    -0.27000
C237        C  0.89423641  0.85453872  0.50097545    -0.03100
C238        C  0.90499175  0.86594034  0.48259687     0.09100
C239        C  0.88707656  0.87136008  0.46744968     0.02900
H240        H  0.90261465  0.84720669  0.51610122     0.10600
H241        H  0.88856543  0.88042693  0.45105645     0.09600
N242        N  0.81734785  0.82109459  0.53297498    -0.34200
N243        N  0.79580274  0.82009416  0.52475484    -0.26400
C244        C  0.78219433  0.80869510  0.54024442    -0.01600
C245        C  0.79588417  0.80205897  0.55905083     0.07000
C246        C  0.81802813  0.81038554  0.55369572     0.05100
H247        H  0.76375938  0.80528552  0.53781354     0.10200
H248        H  0.83352399  0.80933994  0.56435690     0.09000
N249        N  0.46218663  0.12648660  0.07157963    -0.01500
C250        C  0.47608014  0.11983420  0.08939826     0.01100
C251        C  0.46280612  0.11578016  0.10906327    -0.21800
C252        C  0.43994061  0.12011620  0.10316347    -0.22000
C253        C  0.43990535  0.12657290  0.07999685     0.00900
H254        H  0.46906123  0.10996327  0.12579112     0.14700
H255        H  0.42484052  0.11779825  0.11433046     0.14800
N256        N  0.23775599  0.09410726  0.03501132    -0.25400
N257        N  0.24550521  0.07583460  0.02306462    -0.33200
C258        C  0.26840995  0.07859473  0.01865963     0.03000
C259        C  0.27586564  0.09939045  0.02864315     0.09000
C260        C  0.25578582  0.10893820  0.03860263    -0.04100
H261        H  0.27917086  0.06542785  0.01030405     0.09700
H262        H  0.25481452  0.12439129  0.04951056     0.10900
Cu263      Cu  0.22743199  0.04468022  0.01865240     0.44200
Cu264      Cu  0.20413182  0.09545866  0.04950403     0.42000
Cu265      Cu  0.17611283  0.03770593  0.05283339     0.43900
N266        N  0.21187070  0.01232208  0.02384683    -0.32700
N267        N  0.19331091  0.00955206  0.03729942    -0.27000
C268        C  0.18880864  0.98650813  0.03937063    -0.03100
C269        C  0.20533377  0.97415882  0.02651866     0.09100
C270        C  0.21961123  0.99116928  0.01684431     0.02900
H271        H  0.17469571  0.97928665  0.04964598     0.10600
H272        H  0.23510701  0.98835710  0.00634660     0.09600
N273        N  0.16131765  0.06856083  0.06551453    -0.34200
N274        N  0.17116940  0.08948595  0.06432522    -0.26400
C275        C  0.15663202  0.10530689  0.07419301    -0.01600
C276        C  0.13663542  0.09381960  0.08190812     0.07000
C277        C  0.14034604  0.07055078  0.07602264     0.05100
H278        H  0.16023697  0.12385924  0.07532461     0.10200
H279        H  0.12879992  0.05596171  0.07938617     0.09000
N280        N  0.96614537  0.15697537  0.14722360    -0.01500
C281        C  0.98344092  0.15924034  0.13101222     0.01100
C282        C  0.97401929  0.16509652  0.10974598    -0.21800
C283        C  0.95025700  0.16622771  0.11274781    -0.22000
C284        C  0.94571387  0.16111561  0.13580169     0.00900
H285        H  0.98333253  0.16707975  0.09345738     0.14700
H286        H  0.93753831  0.16971052  0.09932568     0.14800
N287        N  0.74678673  0.10155690  0.16718031    -0.25400
N288        N  0.75826217  0.08534117  0.17884812    -0.33200
C289        C  0.77994617  0.09321566  0.18341315     0.03000
C290        C  0.78242844  0.11550537  0.17422162     0.09000
C291        C  0.76092896  0.12014105  0.16404675    -0.04100
H292        H  0.79332364  0.08288004  0.19176329     0.09700
H293        H  0.75590781  0.13570543  0.15471878     0.10900
Cu294      Cu  0.74491350  0.05235366  0.18664806     0.44200
Cu295      Cu  0.71271993  0.09745906  0.15498381     0.42000
Cu296      Cu  0.68604020  0.04147960  0.16803515     0.43900
N297        N  0.72825626  0.02018466  0.19058459    -0.32700
N298        N  0.70670611  0.01617969  0.18340682    -0.27000
C299        C  0.70131848  0.99358088  0.18713431    -0.03100
C300        C  0.72039934  0.98271193  0.19722849     0.09100
C301        C  0.73713257  0.00021388  0.19919868     0.02900
H302        H  0.68470567  0.98570828  0.18276374     0.10600
H303        H  0.75478667  0.99839437  0.20558863     0.09600
N304        N  0.66842298  0.06898886  0.15263626    -0.34200
N305        N  0.67814416  0.08919451  0.14697873    -0.26400
C306        C  0.66188857  0.10278066  0.13676368    -0.01600
C307        C  0.64093306  0.09058019  0.13633777     0.07000
C308        C  0.64576713  0.06929150  0.14657650     0.05100
H309        H  0.66493557  0.12040414  0.13066192     0.10200
H310        H  0.63371814  0.05493926  0.14925356     0.09000
N311        N  0.74072920  0.89823471  0.56002342    -0.01500
C312        C  0.72609577  0.90155927  0.57837070     0.01100
C313        C  0.73833703  0.89972436  0.59893654    -0.21800
C314        C  0.76124036  0.89514155  0.59304828    -0.22000
C315        C  0.76230736  0.89450320  0.56905055     0.00900
H316        H  0.73151878  0.90245859  0.61631355     0.14700
H317        H  0.77580401  0.89397828  0.60493710     0.14800
N318        N  0.96310217  0.94589340  0.53753155    -0.25400
N319        N  0.95454918  0.96223398  0.52374227    -0.33200
C320        C  0.93196326  0.95735316  0.51924114     0.03000
C321        C  0.92588507  0.93715772  0.53101406     0.09000
C322        C  0.94604085  0.93045338  0.54249447    -0.04100
H323        H  0.92044555  0.96844055  0.50925291     0.09700
H324        H  0.94807038  0.91561456  0.55390509     0.10900
Cu325      Cu  0.97278082  0.99232204  0.51468991     0.44200
Cu326      Cu  0.99743739  0.94551198  0.54963048     0.42000
Cu327      Cu  0.03135926  0.99752345  0.53739577     0.43900
N328        N  0.99236950  0.02291241  0.51325229    -0.32700
N329        N  0.01372559  0.02487861  0.52169859    -0.27000
C330        C  0.02079119  0.04724545  0.51975797    -0.03100
C331        C  0.00295382  0.06014962  0.50970855     0.09100
C332        C  0.98523981  0.04400174  0.50581545     0.02900
H333        H  0.03761158  0.05357758  0.52555606     0.10600
H334        H  0.96792166  0.04746315  0.49919329     0.09600
N335        N  0.04494368  0.96803749  0.55327284    -0.34200
N336        N  0.03272903  0.94899859  0.55801243    -0.26400
C337        C  0.04687679  0.93334078  0.56838128    -0.01600
C338        C  0.06910568  0.94301416  0.57020989     0.07000
C339        C  0.06705978  0.96505366  0.56044495     0.05100
H340        H  0.04141745  0.91609892  0.57384305     0.10200
H341        H  0.08053028  0.97824804  0.55900421     0.09000
N342        N  0.23950966  0.89029983  0.64165331    -0.01500
C343        C  0.22429966  0.88496456  0.62428939     0.01100
C344        C  0.23635440  0.87756442  0.60472223    -0.21800
C345        C  0.25969478  0.87881824  0.60995675    -0.22000
C346        C  0.26129174  0.88686362  0.63260025     0.00900
H347        H  0.22905793  0.87336323  0.58789345     0.14700
H348        H  0.27405182  0.87558193  0.59804363     0.14800
N349        N  0.46177716  0.94745456  0.66582824    -0.25400
N350        N  0.45385485  0.96376657  0.68017486    -0.33200
C351        C  0.43116082  0.95989546  0.68472319     0.03000
C352        C  0.42394122  0.94035918  0.67236503     0.09000
C353        C  0.44399711  0.93277209  0.66069723    -0.04100
H354        H  0.42058259  0.97117269  0.69562631     0.09700
H355        H  0.44528596  0.91846746  0.64839548     0.10900
Cu356      Cu  0.47214597  0.99338503  0.68966690     0.44200
Cu357      Cu  0.49611200  0.94802789  0.65288937     0.42000
Cu358      Cu  0.52730494  0.00405904  0.66340116     0.43900
N359        N  0.48881408  0.02531944  0.69203782    -0.32700
N360        N  0.50937563  0.02955649  0.68239804    -0.27000
C361        C  0.51477501  0.05227205  0.68580689    -0.03100
C362        C  0.49647612  0.06283025  0.69785736     0.09100
C363        C  0.48037724  0.04514843  0.70151710     0.02900
H364        H  0.53029099  0.06072193  0.67903565     0.10600
H365        H  0.46350417  0.04666317  0.70996228     0.09600
N366        N  0.54132231  0.97533175  0.64572516    -0.34200
N367        N  0.53066662  0.95495388  0.64262917    -0.26400
C368        C  0.54550240  0.94022845  0.63157114    -0.01600
C369        C  0.56622221  0.95203099  0.62716410     0.07000
C370        C  0.56289989  0.97418835  0.63634765     0.05100
H371        H  0.54140671  0.92234738  0.62681838     0.10200
H372        H  0.57546971  0.98834558  0.63662412     0.09000
N373        N  0.08375208  0.64828107  0.98314640    -0.01500
C374        C  0.10180745  0.66361523  0.98550366     0.01100
C375        C  0.12231273  0.65170539  0.99003375    -0.21800
C376        C  0.11685959  0.62830138  0.99014202    -0.22000
C377        C  0.09314467  0.62654449  0.98575789     0.00900
H378        H  0.13963706  0.65914772  0.99169388     0.14700
H379        H  0.12907683  0.61400613  0.99229399     0.14800
N380        N  0.05795304  0.35739485  0.93122875    -0.25400
N381        N  0.05471582  0.34676770  0.91104079    -0.33200
C382        C  0.06462658  0.32543852  0.91173947     0.03000
C383        C  0.07453100  0.32235864  0.93343699     0.09000
C384        C  0.06981001  0.34295509  0.94541116    -0.04100
H385        H  0.06439711  0.31296943  0.89753889     0.09700
H386        H  0.07507228  0.34735497  0.96292513     0.10900
Cu387      Cu  0.03678649  0.36154615  0.88337356     0.44200
Cu388      Cu  0.04724162  0.39161214  0.93771998     0.42000
Cu389      Cu  0.01349987  0.41990623  0.89254450     0.43900
N390        N  0.01796831  0.37975318  0.85844356    -0.32700
N391        N  0.00965026  0.40110759  0.86181597    -0.27000
C392        C  0.00080527  0.40906770  0.84173359    -0.03100
C393        C  0.00358483  0.39190498  0.82486677     0.09100
C394        C  0.01434474  0.37346446  0.83616614     0.02900
H395        H  0.99375242  0.42645357  0.83937800     0.10600
H396        H  0.02052318  0.35731094  0.82840179     0.09600
N397        N  0.02452292  0.43686275  0.92255681    -0.34200
N398        N  0.03737981  0.42666496  0.93860328    -0.26400
C399        C  0.04453107  0.44296027  0.95390192    -0.01600
C400        C  0.03549984  0.46460428  0.94755895     0.07000
C401        C  0.02291988  0.45987137  0.92745976     0.05100
H402        H  0.05639969  0.43920004  0.96790282     0.10200
H403        H  0.01464935  0.47245617  0.91616903     0.09000
N404        N  0.14623141  0.14952701  0.98343795    -0.01500
C405        C  0.12709678  0.16348122  0.98135851     0.01100
C406        C  0.10696750  0.15074618  0.98561661    -0.21800
C407        C  0.11382459  0.12823515  0.99024996    -0.22000
C408        C  0.13794079  0.12784899  0.98858022     0.00900
H409        H  0.08912728  0.15698357  0.98453045     0.14700
H410        H  0.10236434  0.11342165  0.99302122     0.14800
N411        N  0.16205700  0.85836857  0.92422248    -0.25400
N412        N  0.16426324  0.84844524  0.90354518    -0.33200
C413        C  0.15764354  0.82590071  0.90493989     0.03000
C414        C  0.15080021  0.82123721  0.92762037     0.09000
C415        C  0.15402319  0.84231580  0.93935206    -0.04100
H416        H  0.15699206  0.81410879  0.89022529     0.09700
H417        H  0.15056941  0.84589949  0.95751273     0.10900
Cu418      Cu  0.17495943  0.86620550  0.87395646     0.44200
Cu419      Cu  0.16852315  0.89379102  0.93031639     0.42000
Cu420      Cu  0.18801537  0.92759568  0.87983585     0.43900
N421        N  0.18635530  0.88678322  0.84651548    -0.32700
N422        N  0.19094219  0.90938540  0.84841355    -0.27000
C423        C  0.19803971  0.91742668  0.82754248    -0.03100
C424        C  0.19813045  0.89891863  0.81179934     0.09100
C425        C  0.19053498  0.87982003  0.82453489     0.02900
H426        H  0.20331714  0.93529252  0.82423863     0.10600
H427        H  0.18810092  0.86209559  0.81828813     0.09600
N428        N  0.18342637  0.94157856  0.91313845    -0.34200
N429        N  0.17565824  0.92958404  0.93123656    -0.26400
C430        C  0.17288841  0.94431940  0.94941224    -0.01600
C431        C  0.17967596  0.96650871  0.94254863     0.07000
C432        C  0.18620765  0.96410923  0.91948966     0.05100
H433        H  0.16608313  0.93933251  0.96625100     0.10200
H434        H  0.19150985  0.97798468  0.90784741     0.09000
N435        N  0.48044607  0.41963591  0.57606844    -0.01500
C436        C  0.49660435  0.41820048  0.59327035     0.01100
C437        C  0.48589103  0.41884958  0.61481175    -0.21800
C438        C  0.46234614  0.42087325  0.61091579    -0.22000
C439        C  0.45939751  0.42131729  0.58709989     0.00900
H440        H  0.49442196  0.41895897  0.63156393     0.14700
H441        H  0.44881610  0.42249096  0.62404586     0.14800
N442        N  0.25554152  0.46713092  0.56004108    -0.25400
N443        N  0.26500164  0.48330037  0.54659955    -0.33200
C444        C  0.28737798  0.47751497  0.54208690     0.03000
C445        C  0.29243794  0.45678793  0.55338674     0.09000
C446        C  0.27181773  0.45074814  0.56468953    -0.04100
H447        H  0.29950776  0.48838044  0.53249779     0.09700
H448        H  0.26899563  0.43585246  0.57588768     0.10900
Cu449      Cu  0.24823090  0.51424128  0.53790027     0.44200
Cu450      Cu  0.22108046  0.46900575  0.57193511     0.42000
Cu451      Cu  0.18956712  0.52341587  0.56025456     0.43900
N452        N  0.23064196  0.54594015  0.53583776    -0.32700
N453        N  0.20928302  0.54953170  0.54403138    -0.27000
C454        C  0.20382784  0.57232328  0.54135126    -0.03100
C455        C  0.22276981  0.58364738  0.53121945     0.09100
C456        C  0.23937548  0.56627632  0.52793720     0.02900
H457        H  0.18769222  0.58026764  0.54731807     0.10600
H458        H  0.25678593  0.56831723  0.52079278     0.09600
N459        N  0.17434401  0.49391909  0.57551006    -0.34200
N460        N  0.18580582  0.47428987  0.57975004    -0.26400
C461        C  0.17083799  0.45853938  0.58881033    -0.01600
C462        C  0.14877189  0.46859560  0.59040792     0.07000
C463        C  0.15179226  0.49111350  0.58182496     0.05100
H464        H  0.17560342  0.44079198  0.59318568     0.10200
H465        H  0.13859827  0.50455780  0.58023867     0.09000
N466        N  0.97756431  0.40208215  0.65254185    -0.01500
C467        C  0.99280063  0.40020419  0.63439940     0.01100
C468        C  0.98081734  0.39520093  0.61417278    -0.21800
C469        C  0.95749778  0.39419906  0.61994624    -0.22000
C470        C  0.95588425  0.39852638  0.64356372     0.00900
H471        H  0.98810436  0.39389598  0.59682452     0.14700
H472        H  0.94314473  0.39157677  0.60801618     0.14800
N473        N  0.75755228  0.44652747  0.69221173    -0.25400
N474        N  0.76861663  0.46493432  0.70079416    -0.33200
C475        C  0.79098146  0.45917153  0.70499331     0.03000
C476        C  0.79447977  0.43604421  0.69859055     0.09000
C477        C  0.77275181  0.42853783  0.69072871    -0.04100
H478        H  0.80425357  0.47160295  0.71022409     0.09700
H479        H  0.76859564  0.41170281  0.68316040     0.10900
Cu480      Cu  0.75472979  0.49836750  0.70261715     0.44200
Cu481      Cu  0.72341407  0.44794143  0.67936712     0.42000
Cu482      Cu  0.69776743  0.50679893  0.67998536     0.43900
N483        N  0.73884153  0.53089390  0.70140550    -0.32700
N484        N  0.71750227  0.53413217  0.69344733    -0.27000
C485        C  0.71208572  0.55701682  0.69519336    -0.03100
C486        C  0.73112549  0.56893416  0.70455101     0.09100
C487        C  0.74775117  0.55157679  0.70813741     0.02900
H488        H  0.69537052  0.56421811  0.69023836     0.10600
H489        H  0.76530202  0.55366482  0.71465889     0.09600
N490        N  0.68124023  0.47717365  0.66700746    -0.34200
N491        N  0.69011764  0.45578349  0.66663431    -0.26400
C492        C  0.67443134  0.44119074  0.65672631    -0.01600
C493        C  0.65473255  0.45406516  0.65074142     0.07000
C494        C  0.65986875  0.47675950  0.65747849     0.05100
H495        H  0.67711006  0.42259788  0.65427658     0.10200
H496        H  0.64901002  0.49208411  0.65527431     0.09000
N497        N  0.25399474  0.63461246  0.15137890    -0.01500
C498        C  0.23984751  0.62953890  0.13311458     0.01100
C499        C  0.25255111  0.62931590  0.11266810    -0.21800
C500        C  0.27528829  0.63436765  0.11843820    -0.22000
C501        C  0.27581152  0.63757187  0.14228510     0.00900
H502        H  0.24600294  0.62555265  0.09543684     0.14700
H503        H  0.29002926  0.63479649  0.10657931     0.14800
N504        N  0.47879327  0.59728414  0.17460374    -0.25400
N505        N  0.46948724  0.57898969  0.18519648    -0.33200
C506        C  0.44664537  0.58288161  0.18889685     0.03000
C507        C  0.44085316  0.60457783  0.18007961     0.09000
C508        C  0.46177494  0.61339100  0.17128259    -0.04100
H509        H  0.43484602  0.57025172  0.19654273     0.09700
H510        H  0.46412423  0.62960393  0.16191267     0.10900
Cu511      Cu  0.48638721  0.54769813  0.19191052     0.44200
Cu512      Cu  0.51388283  0.59757221  0.16355751     0.42000
Cu513      Cu  0.54545671  0.54188306  0.17516199     0.43900
N514        N  0.50471729  0.51677849  0.19632746    -0.32700
N515        N  0.52682972  0.51441612  0.19015098    -0.27000
C516        C  0.53360220  0.49223649  0.19433329    -0.03100
C517        C  0.51473508  0.47989950  0.20361299     0.09100
C518        C  0.49674689  0.49626125  0.20451766     0.02900
H519        H  0.55101608  0.48573988  0.19084796     0.10600
H520        H  0.47883173  0.49336863  0.20981226     0.09600
N521        N  0.56016338  0.57128819  0.15948428    -0.34200
N522        N  0.54912545  0.59115365  0.15504772    -0.26400
C523        C  0.56412752  0.60572406  0.14412033    -0.01600
C524        C  0.58562701  0.59455818  0.14157821     0.07000
C525        C  0.58229034  0.57278235  0.15158605     0.05100
H526        H  0.55968371  0.62320517  0.13851295     0.10200
H527        H  0.59483817  0.55865412  0.15248911     0.09000
N528        N  0.75545068  0.64859227  0.06093184    -0.01500
C529        C  0.74073819  0.64658186  0.07944485     0.01100
C530        C  0.75298333  0.64905689  0.09993774    -0.21800
C531        C  0.77596764  0.65277921  0.09394672    -0.22000
C532        C  0.77706789  0.65240334  0.06995562     0.00900
H533        H  0.74605258  0.64741356  0.11738661     0.14700
H534        H  0.79052536  0.65428662  0.10581739     0.14800
N535        N  0.97646153  0.59297942  0.04117578    -0.25400
N536        N  0.96553703  0.57592862  0.02999942    -0.33200
C537        C  0.94338766  0.58253396  0.02577148     0.03000
C538        C  0.93995772  0.60469972  0.03494646     0.09000
C539        C  0.96127510  0.61071585  0.04473677    -0.04100
H540        H  0.93031115  0.57142088  0.01782504     0.09700
H541        H  0.96530105  0.62659517  0.05420626     0.10900
Cu542      Cu  0.97959822  0.54295866  0.02410570     0.44200
Cu543      Cu  0.01133408  0.59082698  0.05184529     0.42000
Cu544      Cu  0.03843098  0.53386618  0.04358506     0.43900
N545        N  0.99544675  0.51033460  0.02477343    -0.32700
N546        N  0.01712534  0.50702810  0.03188425    -0.27000
C547        C  0.02207668  0.48403416  0.03098818    -0.03100
C548        C  0.00248198  0.47221395  0.02304546     0.09100
C549        C  0.98594708  0.48950640  0.01926952     0.02900
H550        H  0.03858905  0.47650741  0.03619440     0.10600
H551        H  0.96837065  0.48718936  0.01279434     0.09600
N552        N  0.05580542  0.56270926  0.05694764    -0.34200
N553        N  0.04609616  0.58345909  0.06035613    -0.26400
C554        C  0.06191448  0.59766965  0.07051293    -0.01600
C555        C  0.08256084  0.58523337  0.07364186     0.07000
C556        C  0.07791877  0.56315859  0.06473748     0.05100
H557        H  0.05853865  0.61566988  0.07538498     0.10200
H558        H  0.08944121  0.54813922  0.06474934     0.09000
N559        N  0.57078837  0.65006207  0.23091508    -0.01500
C560        C  0.58852263  0.66507980  0.22575933     0.01100
C561        C  0.60818108  0.65267663  0.21895719    -0.21800
C562        C  0.60249473  0.62934065  0.22021501    -0.22000
C563        C  0.57948500  0.62812747  0.22765621     0.00900
H564        H  0.62526769  0.65978593  0.21494119     0.14700
H565        H  0.61419193  0.61476891  0.21698516     0.14800
N566        N  0.55732812  0.35930590  0.29536234    -0.25400
N567        N  0.55282978  0.34934160  0.31559641    -0.33200
C568        C  0.56188917  0.32760565  0.31556098     0.03000
C569        C  0.57272005  0.32333857  0.29429452     0.09000
C570        C  0.56935222  0.34400030  0.28194925    -0.04100
H571        H  0.56118111  0.31605976  0.33044895     0.09700
H572        H  0.57499881  0.34769595  0.26448418     0.10900
Cu573      Cu  0.53595692  0.36576348  0.34342975     0.44200
Cu574      Cu  0.54780753  0.39378360  0.28714696     0.42000
Cu575      Cu  0.52007961  0.42553746  0.33459613     0.43900
N576        N  0.52257677  0.38695258  0.36991180    -0.32700
N577        N  0.51727956  0.40920474  0.36665406    -0.27000
C578        C  0.51096588  0.41886930  0.38711404    -0.03100
C579        C  0.51218692  0.40187393  0.40419016     0.09100
C580        C  0.51953012  0.38179659  0.39255387     0.02900
H581        H  0.50590635  0.43698975  0.38936405     0.10600
H582        H  0.52325371  0.36490684  0.40012626     0.09600
N583        N  0.52659640  0.43996485  0.30215152    -0.34200
N584        N  0.53706504  0.42882939  0.28480122    -0.26400
C585        C  0.54063462  0.44412931  0.26732186    -0.01600
C586        C  0.53193796  0.46595291  0.27400190     0.07000
C587        C  0.52315401  0.46241443  0.29618896     0.05100
H588        H  0.54950796  0.43979044  0.25123864     0.10200
H589        H  0.51619844  0.47559447  0.30788385     0.09000
N590        N  0.64403319  0.15099245  0.23844758    -0.01500
C591        C  0.62576512  0.16631193  0.23859129     0.01100
C592        C  0.60496055  0.15439086  0.23547926    -0.21800
C593        C  0.61046611  0.13106808  0.23359736    -0.22000
C594        C  0.63450322  0.12933275  0.23551064     0.00900
H595        H  0.58751977  0.16176921  0.23560890     0.14700
H596        H  0.59816891  0.11678313  0.23175961     0.14800
N597        N  0.66180348  0.85922412  0.27692946    -0.25400
N598        N  0.66500875  0.84877769  0.29712341    -0.33200
C599        C  0.65581912  0.82717324  0.29632360     0.03000
C600        C  0.64629706  0.82341770  0.27455789     0.09000
C601        C  0.65031099  0.84426806  0.26270163    -0.04100
H602        H  0.65594910  0.81511299  0.31076466     0.09700
H603        H  0.64564893  0.84810876  0.24492244     0.10900
Cu604      Cu  0.68149503  0.86365351  0.32554295     0.44200
Cu605      Cu  0.67359298  0.89354771  0.27066152     0.42000
Cu606      Cu  0.70142134  0.92220744  0.32116920     0.43900
N607        N  0.69688830  0.88113264  0.35310018    -0.32700
N608        N  0.70404629  0.90303458  0.35170094    -0.27000
C609        C  0.71186768  0.90993976  0.37267670    -0.03100
C610        C  0.70954629  0.89142290  0.38812863     0.09100
C611        C  0.70007378  0.87341522  0.37489088     0.02900
H612        H  0.71797809  0.92743637  0.37650169     0.10600
H613        H  0.69569630  0.85593410  0.38056571     0.09600
N614        N  0.69553567  0.93838253  0.28938552    -0.34200
N615        N  0.68577749  0.92832526  0.27107890    -0.26400
C616        C  0.68277719  0.94471040  0.25453237    -0.01600
C617        C  0.69071850  0.96623216  0.26287546     0.07000
C618        C  0.69879766  0.96125424  0.28500877     0.05100
H619        H  0.67449033  0.94127313  0.23803756     0.10200
H620        H  0.70492463  0.97366735  0.29784180     0.09000
N621        N  0.64079843  0.41302074  0.75061719    -0.01500
C622        C  0.62178935  0.39962157  0.75571868     0.01100
C623        C  0.60158336  0.41273909  0.75312675    -0.21800
C624        C  0.60832140  0.43482339  0.74650359    -0.22000
C625        C  0.63241818  0.43457893  0.74528133     0.00900
H626        H  0.58380570  0.40697033  0.75617679     0.14700
H627        H  0.59696195  0.44975241  0.74402433     0.14800
N628        N  0.68726370  0.63467263  0.77459445    -0.25400
N629        N  0.69873860  0.62425516  0.79155872    -0.33200
C630        C  0.70133739  0.60146074  0.78624088     0.03000
C631        C  0.69079858  0.59708335  0.76502870     0.09000
C632        C  0.68212521  0.61865161  0.75811790    -0.04100
H633        H  0.70860865  0.58860845  0.79792581     0.09700
H634        H  0.67183900  0.62224937  0.74282402     0.10900
Cu635      Cu  0.70666445  0.64004700  0.82322288     0.44200
Cu636      Cu  0.67644568  0.66949904  0.77621822     0.42000
Cu637      Cu  0.68454205  0.69819457  0.83218506     0.43900
N638        N  0.70941037  0.65793901  0.85468916    -0.32700
N639        N  0.70138157  0.67938677  0.85791178    -0.27000
C640        C  0.70506612  0.68583738  0.88011120    -0.03100
C641        C  0.71576849  0.66745353  0.89166664     0.09100
C642        C  0.71823939  0.65007705  0.87483495     0.02900
H643        H  0.70020674  0.70270738  0.88720775     0.10600
H644        H  0.72515871  0.63264340  0.87715081     0.09600
N645        N  0.66883626  0.71397079  0.80385953    -0.34200
N646        N  0.66619088  0.70381139  0.78335792    -0.26400
C647        C  0.65586464  0.71906336  0.76886383    -0.01600
C648        C  0.65178392  0.73985962  0.78080834     0.07000
C649        C  0.66018888  0.73583460  0.80299392     0.05100
H650        H  0.65198489  0.71534019  0.75085677     0.10200
H651        H  0.65998196  0.74782888  0.81757047     0.09000
N652        N  0.57400514  0.90958982  0.73240189    -0.01500
C653        C  0.59224310  0.89529799  0.72694057     0.01100
C654        C  0.61170303  0.90852315  0.72127039    -0.21800
C655        C  0.60535151  0.93162487  0.72371110    -0.22000
C656        C  0.58215880  0.93179571  0.73055830     0.00900
H657        H  0.62914967  0.90207436  0.71763110     0.14700
H658        H  0.61673364  0.94664426  0.72187690     0.14800
N659        N  0.56039180  0.20022728  0.79991853    -0.25400
N660        N  0.55710171  0.20972797  0.82072335    -0.33200
C661        C  0.56518714  0.23178243  0.82064461     0.03000
C662        C  0.57414667  0.23670430  0.79885722     0.09000
C663        C  0.57060586  0.21632618  0.78603895    -0.04100
H664        H  0.56454111  0.24343103  0.83550771     0.09700
H665        H  0.57566756  0.21320761  0.76815527     0.10900
Cu666      Cu  0.54215668  0.19343476  0.84935237     0.44200
Cu667      Cu  0.55155448  0.16538975  0.79170240     0.42000
Cu668      Cu  0.52233714  0.13570578  0.83889131     0.43900
N669        N  0.52613967  0.17349808  0.87492011    -0.32700
N670        N  0.51870566  0.15206054  0.87061263    -0.27000
C671        C  0.50942787  0.14298896  0.89001527    -0.03100
C672        C  0.51097669  0.15951220  0.90757402     0.09100
C673        C  0.52174875  0.17871264  0.89737948     0.02900
H674        H  0.50261890  0.12538186  0.89131403     0.10600
H675        H  0.52596383  0.19524785  0.90558202     0.09600
N676        N  0.52939302  0.11999941  0.80739411    -0.34200
N677        N  0.54073271  0.13021366  0.79013643    -0.26400
C678        C  0.54472935  0.11403193  0.77342361    -0.01600
C679        C  0.53520168  0.09276683  0.78048948     0.07000
C680        C  0.52565408  0.09739020  0.80212496     0.05100
H681        H  0.55458639  0.11729726  0.75769538     0.10200
H682        H  0.51797109  0.08485082  0.81395828     0.09000
N683        N  0.98228646  0.23389857  0.49245072    -0.01500
C684        C  0.98029518  0.25056825  0.50927435     0.01100
C685        C  0.98263933  0.27262395  0.49985452    -0.21800
C686        C  0.98610103  0.26960106  0.47645572    -0.22000
C687        C  0.98575054  0.24573915  0.47228689     0.00900
H688        H  0.98069716  0.28917976  0.50888460     0.14700
H689        H  0.98719685  0.28339900  0.46367515     0.14800
N690        N  0.92666054  0.24189171  0.20045185    -0.25400
N691        N  0.90840695  0.23518156  0.18800952    -0.33200
C692        C  0.91315848  0.23873625  0.16540703     0.03000
C693        C  0.93525531  0.24842721  0.16357156     0.09000
C694        C  0.94329200  0.25028244  0.18610638    -0.04100
H695        H  0.90127987  0.23477891  0.15134167     0.09700
H696        H  0.96016898  0.25672513  0.19164605     0.10900
Cu697      Cu  0.87746516  0.22171950  0.20169784     0.44200
Cu698      Cu  0.92925750  0.23796195  0.23611130     0.42000
Cu699      Cu  0.88083278  0.20708932  0.26179826     0.43900
N700        N  0.84941526  0.20758994  0.22007175    -0.32700
N701        N  0.85109187  0.20186863  0.24219575    -0.27000
C702        C  0.83035450  0.19383041  0.24973194    -0.03100
C703        C  0.81459272  0.19458558  0.23153793     0.09100
C704        C  0.82741791  0.20328848  0.21288733     0.02900
H705        H  0.82707100  0.18798935  0.26728071     0.10600
H706        H  0.82112695  0.20692489  0.19558653     0.09600
N707        N  0.91003310  0.21759562  0.28011826    -0.34200
N708        N  0.92782736  0.22911267  0.27094116    -0.26400
C709        C  0.94339166  0.23403040  0.28776454    -0.01600
C710        C  0.93475574  0.22538726  0.30855932     0.07000
C711        C  0.91364044  0.21500967  0.30297726     0.05100
H712        H  0.95944966  0.24370075  0.28512891     0.10200
H713        H  0.90167291  0.20627547  0.31466966     0.09000
N714        N  0.98600295  0.30016770  0.98777592    -0.01500
C715        C  0.98882465  0.28245836  0.00319629     0.01100
C716        C  0.99016545  0.26123780  0.99164752    -0.21800
C717        C  0.98771752  0.26595779  0.96841730    -0.22000
C718        C  0.98506278  0.28993247  0.96644038     0.00900
H719        H  0.99124379  0.24404408  0.99938675     0.14700
H720        H  0.98680088  0.25316033  0.95452595     0.14800
N721        N  0.92369669  0.33213448  0.76935596    -0.25400
N722        N  0.90800211  0.34582435  0.77949835    -0.33200
C723        C  0.91346096  0.34836193  0.80209005     0.03000
C724        C  0.93350684  0.33553684  0.80656789     0.09000
C725        C  0.93946115  0.32545186  0.78533836    -0.04100
H726        H  0.90292384  0.35792920  0.81457144     0.09700
H727        H  0.95405892  0.31392851  0.78176529     0.10900
Cu728      Cu  0.87843977  0.35845689  0.76289088     0.44200
Cu729      Cu  0.92223222  0.32241293  0.73438950     0.42000
Cu730      Cu  0.86987456  0.34013271  0.70334778     0.43900
N731        N  0.84841418  0.36571076  0.74408677    -0.32700
N732        N  0.84530564  0.35904437  0.72231685    -0.27000
C733        C  0.82345959  0.36464893  0.71581101    -0.03100
C734        C  0.81201273  0.37513135  0.73449159     0.09100
C735        C  0.82856313  0.37558974  0.75205963     0.02900
H736        H  0.81637760  0.36074913  0.69885990     0.10600
H737        H  0.82599011  0.38128386  0.76982337     0.09600
N738        N  0.89708792  0.32133353  0.68825197    -0.34200
N739        N  0.91627046  0.31508117  0.69936005    -0.26400
C740        C  0.93038675  0.30343645  0.68449335    -0.01600
C741        C  0.91956117  0.30215885  0.66295211     0.07000
C742        C  0.89843611  0.31374321  0.66613598     0.05100
H743        H  0.94741917  0.29669481  0.68905584     0.10200
H744        H  0.88475540  0.31621532  0.65346378     0.09000
C745        C  0.95362176  0.34534135  0.86884818     0.14600
C746        C  0.96145671  0.32288518  0.87487925     0.01600
C747        C  0.96188211  0.30520628  0.85780430     0.16500
C748        C  0.95350471  0.30949691  0.83542388     0.26000
C749        C  0.94454404  0.33165206  0.82959372    -0.40400
C750        C  0.94516519  0.34968512  0.84641423     0.33000
C751        C  0.96665323  0.31684978  0.89939115     0.01600
F752        F  0.96968654  0.28342805  0.86312142    -0.12700
F753        F  0.93735064  0.37147693  0.84123426    -0.13200
C754        C  0.95255735  0.30026295  0.91066722     0.16500
C755        C  0.95815290  0.29253752  0.93289354     0.26000
C756        C  0.97800674  0.30117776  0.94440737    -0.40300
C757        C  0.99164229  0.31857278  0.93367191     0.32900
C758        C  0.98588979  0.32647373  0.91128484     0.14600
F759        F  0.93346921  0.29122197  0.89990544    -0.12700
F760        F  0.01105204  0.32700666  0.94431606    -0.13200
F761        F  0.94431034  0.27619128  0.94311155    -0.15500
F762        F  0.99959927  0.34271122  0.90083401    -0.14000
F763        F  0.95308637  0.36273722  0.88499370    -0.14000
F764        F  0.95283100  0.29148643  0.81997569    -0.15500
C765        C  0.96637911  0.28487466  0.11815374     0.14600
C766        C  0.96644178  0.26943674  0.09909604     0.01600
C767        C  0.95768215  0.24663414  0.10183630     0.16500
C768        C  0.94806187  0.23966525  0.12305682     0.26000
C769        C  0.94737573  0.25525624  0.14197069    -0.40400
C770        C  0.95718110  0.27771167  0.13960092     0.33000
C771        C  0.97467833  0.27704860  0.07595874     0.01600
F772        F  0.95782009  0.23135100  0.08369165    -0.12700
F773        F  0.95687071  0.29303131  0.15770755    -0.13200
C774        C  0.99547770  0.26787424  0.06664817     0.16500
C775        C  0.00111850  0.27140200  0.04325156     0.26000
C776        C  0.98599179  0.28410457  0.02878431    -0.40300
C777        C  0.96586845  0.29452787  0.03852138     0.32900
C778        C  0.96028680  0.29103727  0.06198884     0.14600
F779        F  0.00968259  0.25447665  0.07996678    -0.12700
F780        F  0.95044390  0.30613560  0.02490218    -0.13200
F781        F  0.02078131  0.26138291  0.03437918    -0.15500
F782        F  0.93989438  0.29973996  0.07061703    -0.14000
F783        F  0.97493399  0.30691295  0.11586340    -0.14000
F784        F  0.93941071  0.21765365  0.12518863    -0.15500
C785        C  0.93940535  0.25205242  0.56018007     0.14600
C786        C  0.95469685  0.25891409  0.57803317     0.01600
C787        C  0.97897635  0.25834807  0.57381379     0.16500
C788        C  0.98765321  0.25251277  0.55171153     0.26000
C789        C  0.97223563  0.24744863  0.53344209    -0.40400
C790        C  0.94805011  0.24700681  0.53794647     0.33000
C791        C  0.94526661  0.26935655  0.59988457     0.01600
F792        F  0.99418379  0.26554291  0.59042865    -0.12700
F793        F  0.93263070  0.24442100  0.52024587    -0.13200
C794        C  0.95197040  0.26081234  0.62171084     0.16500
C795        C  0.94367601  0.27140946  0.64217463     0.26000
C796        C  0.92847601  0.29085178  0.64125043    -0.40300
C797        C  0.92182217  0.29936355  0.61929329     0.32900
C798        C  0.93012628  0.28875287  0.59890683     0.14600
F799        F  0.96631399  0.24194018  0.62322284    -0.12700
F800        F  0.90794627  0.31853671  0.61738593    -0.13200
F801        F  0.95011484  0.26217275  0.66285678    -0.15500
F802        F  0.92393569  0.29797852  0.57810790    -0.14000
F803        F  0.91591959  0.25187589  0.56384672    -0.14000
F804        F  0.01099125  0.25411371  0.54751312    -0.15500
C805        C  0.96130939  0.21555155  0.41924772     0.14600
C806        C  0.97327770  0.22744554  0.40141661     0.01600
C807        C  0.99243515  0.24173051  0.40732102     0.16500
C808        C  0.99822533  0.24544170  0.43063304     0.26000
C809        C  0.98440156  0.23579457  0.44847622    -0.40400
C810        C  0.96630579  0.22024104  0.44253883     0.33000
C811        C  0.96387715  0.22719333  0.37734070     0.01600
F812        F  0.00430733  0.25376367  0.39075416    -0.12700
F813        F  0.95171795  0.21154047  0.45900298    -0.13200
C814        C  0.93993555  0.23168037  0.37368092     0.16500
C815        C  0.93062243  0.23118111  0.35133889     0.26000
C816        C  0.94514135  0.22714023  0.33198130    -0.40300
C817        C  0.96930810  0.22413997  0.33538679     0.32900
C818        C  0.97851388  0.22352659  0.35790608     0.14600
F819        F  0.92552415  0.23714103  0.39174130    -0.12700
F820        F  0.98395480  0.22123871  0.31698278    -0.13200
F821        F  0.90743359  0.23549014  0.34860975    -0.15500
F822        F  0.00161914  0.21888804  0.36068529    -0.14000
F823        F  0.94357500  0.20059029  0.41414283    -0.14000
F824        F  0.01631752  0.25992924  0.43581190    -0.15500
C825        C  0.56984954  0.98723140  0.76403791     0.14600
C826        C  0.55234172  0.99774000  0.75059301     0.01600
C827        C  0.54268984  0.98520517  0.73183815     0.16500
C828        C  0.55150457  0.96300832  0.72580517     0.26000
C829        C  0.56999838  0.95323803  0.73850745    -0.40400
C830        C  0.57870549  0.96527222  0.75795670     0.33000
C831        C  0.54620223  0.02256682  0.75510956     0.01600
F832        F  0.52567316  0.99496000  0.71869720    -0.12700
F833        F  0.59631808  0.95596467  0.77070723    -0.13200
C834        C  0.56330077  0.03989846  0.75175815     0.16500
C835        C  0.55931149  0.06295753  0.75897824     0.26000
C836        C  0.53808311  0.06918975  0.76980204    -0.40300
C837        C  0.52050051  0.05199234  0.77220866     0.32900
C838        C  0.52451500  0.02886908  0.76481830     0.14600
F839        F  0.58436222  0.03419224  0.74230131    -0.12700
F840        F  0.49959819  0.05744357  0.78214976    -0.13200
F841        F  0.57691528  0.07873704  0.75681772    -0.15500
F842        F  0.50771654  0.01241710  0.76820994    -0.14000
F843        F  0.57892615  0.99868378  0.78266156    -0.14000
F844        F  0.54297812  0.95170127  0.70685365    -0.15500
C845        C  0.59704411  0.84031413  0.76259460     0.14600
C846        C  0.60901333  0.82534390  0.74715110     0.01600
C847        C  0.61227647  0.83236178  0.72398456     0.16500
C848        C  0.60499055  0.85459798  0.71678982     0.26000
C849        C  0.59406358  0.87005727  0.73256152    -0.40400
C850        C  0.58958059  0.86245563  0.75536175     0.33000
C851        C  0.61977276  0.80336582  0.75570151     0.01600
F852        F  0.62393619  0.81830902  0.70876152    -0.12700
F853        F  0.57995301  0.87722930  0.77127269    -0.13200
C854        C  0.61290061  0.78150777  0.74680961     0.16500
C855        C  0.62330040  0.76086995  0.75488090     0.26000
C856        C  0.64092274  0.76172551  0.77193106    -0.40300
C857        C  0.64793435  0.78374390  0.78059713     0.32900
C858        C  0.63741909  0.80429898  0.77260279     0.14600
F859        F  0.59574788  0.78013389  0.73062653    -0.12700
F860        F  0.66547905  0.78554349  0.79631939    -0.13200
F861        F  0.61554884  0.74004085  0.74650517    -0.15500
F862        F  0.64486711  0.82525218  0.78100827    -0.14000
F863        F  0.59353883  0.83387296  0.78502307    -0.14000
F864        F  0.60971891  0.86154791  0.69472931    -0.15500
C865        C  0.62681510  0.33319789  0.75681005     0.14600
C866        C  0.61189583  0.32779132  0.77556884     0.01600
C867        C  0.60276171  0.34613182  0.78917576     0.16500
C868        C  0.60743824  0.36942342  0.78346504     0.26000
C869        C  0.62137670  0.37498584  0.76400184    -0.40400
C870        C  0.63152955  0.35663858  0.75104040     0.33000
C871        C  0.60452824  0.30329119  0.78033908     0.01600
F872        F  0.58820913  0.34151081  0.80730875    -0.12700
F873        F  0.64466490  0.36130837  0.73192439    -0.13200
C874        C  0.60923733  0.29304517  0.80195300     0.16500
C875        C  0.59996726  0.27110153  0.80757119     0.26000
C876        C  0.58566375  0.25890699  0.79172409    -0.40300
C877        C  0.58161595  0.26878783  0.76973707     0.32900
C878        C  0.59092250  0.29082685  0.76413524     0.14600
F879        F  0.62260523  0.30448843  0.81779640    -0.12700
F880        F  0.56758303  0.25777872  0.75417131    -0.13200
F881        F  0.60509123  0.26173484  0.82858105    -0.15500
F882        F  0.58561630  0.30057705  0.74334353    -0.14000
F883        F  0.63631208  0.31575448  0.74374278    -0.14000
F884        F  0.59755573  0.38668201  0.79653233    -0.15500
C885        C  0.69626979  0.53231986  0.75158494     0.14600
C886        C  0.67343221  0.52669981  0.74448368     0.01600
C887        C  0.65726665  0.54499111  0.74119659     0.16500
C888        C  0.66338903  0.56820338  0.74632059     0.26000
C889        C  0.68569148  0.57354370  0.75519543    -0.40400
C890        C  0.70226937  0.55544461  0.75708735     0.33000
C891        C  0.66576213  0.50179514  0.74306220     0.01600
F892        F  0.63495041  0.54024756  0.73470228    -0.12700
F893        F  0.72422126  0.56007460  0.76473643    -0.13200
C894        C  0.66857030  0.48702249  0.76240567     0.16500
C895        C  0.65924442  0.46437895  0.76233988     0.26000
C896        C  0.64650921  0.45621886  0.74316897    -0.40300
C897        C  0.64431700  0.47054541  0.72353508     0.32900
C898        C  0.65402919  0.49309077  0.72337053     0.14600
F899        F  0.67888289  0.49509977  0.78207907    -0.12700
F900        F  0.63217487  0.46285710  0.70480036    -0.13200
F901        F  0.66104157  0.45111497  0.78176694    -0.15500
F902        F  0.65139837  0.50666500  0.70426404    -0.14000
F903        F  0.71261099  0.51524178  0.75386939    -0.14000
F904        F  0.64679760  0.58508077  0.74441525    -0.15500
C905        C  0.70128598  0.39238794  0.76584957     0.14600
C906        C  0.71326421  0.39649960  0.74481658     0.01600
C907        C  0.70083058  0.40512555  0.72570726     0.16500
C908        C  0.67694104  0.40981180  0.72759155     0.26000
C909        C  0.66496323  0.40608313  0.74863486    -0.40400
C910        C  0.67722511  0.39708654  0.76772077     0.33000
C911        C  0.73855690  0.39123946  0.74232110     0.01600
F912        F  0.71195855  0.40929247  0.70524958    -0.12700
F913        F  0.66605547  0.39350430  0.78825173    -0.13200
C914        C  0.74604884  0.37436604  0.72612965     0.16500
C915        C  0.76983688  0.36943155  0.72326038     0.26000
C916        C  0.78679052  0.38142606  0.73648101    -0.40300
C917        C  0.77921299  0.39874794  0.75238735     0.32900
C918        C  0.75531198  0.40348955  0.75535904     0.14600
F919        F  0.73017293  0.36221518  0.71339692    -0.12700
F920        F  0.79490062  0.41146951  0.76477753    -0.13200
F921        F  0.77601478  0.35220114  0.70814234    -0.15500
F922        F  0.74853632  0.42037103  0.77065619    -0.14000
F923        F  0.71285853  0.38364537  0.78444094    -0.14000
F924        F  0.66532814  0.41795487  0.70876886    -0.15500
C925        C  0.64834966  0.06777139  0.25479634     0.14600
C926        C  0.66606011  0.06092765  0.23925178     0.01600
C927        C  0.67423431  0.07703758  0.22265702     0.16500
C928        C  0.66451145  0.09966733  0.22153431     0.26000
C929        C  0.64668657  0.10641359  0.23716683    -0.40400
C930        C  0.63878328  0.09021687  0.25378224     0.33000
C931        C  0.67544955  0.03677530  0.24079582     0.01600
F932        F  0.69120142  0.07068029  0.20731065    -0.12700
F933        F  0.62164155  0.09617926  0.26912763    -0.13200
C934        C  0.66232156  0.01790279  0.23220422     0.16500
C935        C  0.66805039  0.99483369  0.23815107     0.26000
C936        C  0.68711337  0.99014088  0.25293606    -0.40300
C937        C  0.70124226  0.00914118  0.26009656     0.32900
C938        C  0.69531415  0.03220628  0.25423665     0.14600
F939        F  0.64301033  0.02194648  0.21917518    -0.12700
F940        F  0.72042992  0.00556984  0.27342127    -0.13200
F941        F  0.65378334  0.97739993  0.23074636    -0.15500
F942        F  0.70812472  0.05022051  0.26292113    -0.14000
F943        F  0.64021850  0.05254396  0.27098730    -0.14000
F944        F  0.67182554  0.11458022  0.20470755    -0.15500
C945        C  0.70827206  0.15199751  0.25238346     0.14600
C946        C  0.71667369  0.16799588  0.23577230     0.01600
C947        C  0.70078563  0.17833654  0.22033732     0.16500
C948        C  0.67701411  0.17274552  0.22138373     0.26000
C949        C  0.66854880  0.15692028  0.23804012    -0.40400
C950        C  0.68436659  0.14660286  0.25359023     0.33000
C951        C  0.74184916  0.17437811  0.23474820     0.01600
F952        F  0.70826244  0.19415288  0.20440861    -0.12700
F953        F  0.67661999  0.13160586  0.27014061    -0.13200
C954        C  0.75467216  0.17175075  0.21398437     0.16500
C955        C  0.77811938  0.17876652  0.21274076     0.26000
C956        C  0.78940201  0.18809866  0.23240397    -0.40300
C957        C  0.77640230  0.19092659  0.25312460     0.32900
C958        C  0.75290537  0.18415110  0.25424982     0.14600
F959        F  0.74449456  0.16217256  0.19492172    -0.12700
F960        F  0.78607765  0.20115572  0.27211838    -0.13200
F961        F  0.78980699  0.17610078  0.19235575    -0.15500
F962        F  0.74071001  0.18784357  0.27423999    -0.14000
F963        F  0.72327013  0.14139976  0.26724083    -0.14000
F964        F  0.66223481  0.18242419  0.20574110    -0.15500
C965        C  0.61344058  0.28151216  0.26116438     0.14600
C966        C  0.60757333  0.25980123  0.27091839     0.01600
C967        C  0.59094347  0.25910979  0.28891742     0.16500
C968        C  0.57987790  0.27963254  0.29666021     0.26000
C969        C  0.58524033  0.30152809  0.28660090    -0.40400
C970        C  0.60255080  0.30216756  0.26898308     0.33000
C971        C  0.61659242  0.23755423  0.26074079     0.01600
F972        F  0.58456303  0.23828181  0.29829618    -0.12700
F973        F  0.60925376  0.32275736  0.25937952    -0.13200
C974        C  0.63127208  0.22258454  0.27346473     0.16500
C975        C  0.63625425  0.19986710  0.26526477     0.26000
C976        C  0.62641812  0.19177049  0.24431663    -0.40300
C977        C  0.61302356  0.20737972  0.23098336     0.32900
C978        C  0.60820970  0.23001777  0.23908173     0.14600
F979        F  0.63984935  0.22959494  0.29432622    -0.12700
F980        F  0.60346612  0.20020451  0.21060526    -0.13200
F981        F  0.64897034  0.18521457  0.27875130    -0.15500
F982        F  0.59387483  0.24402996  0.22653879    -0.14000
F983        F  0.62963030  0.28266200  0.24387200    -0.14000
F984        F  0.56316902  0.27769276  0.31334197    -0.15500
C985        C  0.59250784  0.72105648  0.26087702     0.14600
C986        C  0.60232338  0.73654234  0.24455182     0.01600
C987        C  0.60453052  0.72917790  0.22130748     0.16500
C988        C  0.59835346  0.70631020  0.21479851     0.26000
C989        C  0.58942102  0.69050530  0.23130246    -0.40400
C990        C  0.58604781  0.69826861  0.25430221     0.33000
C991        C  0.61297718  0.75906322  0.25226460     0.01600
F992        F  0.61430969  0.74356853  0.20526370    -0.12700
F993        F  0.57858574  0.68314546  0.27088266    -0.13200
C994        C  0.63239112  0.75870170  0.26711724     0.16500
C995        C  0.64326654  0.77952856  0.27400360     0.26000
C996        C  0.63499738  0.80138231  0.26623289    -0.40300
C997        C  0.61560307  0.80176351  0.25117650     0.32900
C998        C  0.60470289  0.78077279  0.24425960     0.14600
F999        F  0.64124952  0.73799414  0.27453612    -0.12700
F1000       F  0.60671408  0.82243530  0.24373958    -0.13200
F1001       F  0.66240100  0.77815247  0.28779985    -0.15500
F1002       F  0.58580687  0.78164208  0.23008787    -0.14000
F1003       F  0.59031422  0.72764090  0.28348226    -0.14000
F1004       F  0.60232091  0.69914261  0.19259914    -0.15500
C1005       C  0.52312403  0.53016683  0.25891770     0.14600
C1006       C  0.54403740  0.53534060  0.24714380     0.01600
C1007       C  0.55947815  0.51694899  0.24159759     0.16500
C1008       C  0.55494747  0.49407791  0.24908736     0.26000
C1009       C  0.53481586  0.48909591  0.26238422    -0.40400
C1010       C  0.51852094  0.50727263  0.26642719     0.33000
C1011       C  0.55134355  0.56001047  0.24317322     0.01600
F1012       F  0.57949189  0.52136567  0.22959408    -0.12700
F1013       F  0.49833587  0.50304145  0.27819061    -0.13200
C1014       C  0.57139077  0.56848454  0.25442733     0.16500
C1015       C  0.57966185  0.59102075  0.25003130     0.26000
C1016       C  0.56812121  0.60571155  0.23425268    -0.40300
C1017       C  0.54747673  0.59770584  0.22360904     0.32900
C1018       C  0.53905889  0.57500806  0.22816178     0.14600
F1019       F  0.58312185  0.55475947  0.26966134    -0.12700
F1020       F  0.53614104  0.61134297  0.20803520    -0.13200
F1021       F  0.59926859  0.59846885  0.26106348    -0.15500
F1022       F  0.51948973  0.56737834  0.21726991    -0.14000
F1023       F  0.50782756  0.54753799  0.26441077    -0.14000
F1024       F  0.57105897  0.47722323  0.24447984    -0.15500
C1025       C  0.01601312  0.41020919  0.00359164     0.14600
C1026       C  0.99471623  0.39860688  0.00800778     0.01600
C1027       C  0.97617611  0.41134153  0.01816718     0.16500
C1028       C  0.97862600  0.43526389  0.02302549     0.26000
C1029       C  0.99996190  0.44674756  0.01867919    -0.40400
C1030       C  0.01881542  0.43378015  0.00963438     0.33000
C1031       C  0.99216269  0.37316429  0.00273999     0.01600
F1032       F  0.95585486  0.40050442  0.02398872    -0.12700
F1033       F  0.03992226  0.44405183  0.00626743    -0.13200
C1034       C  0.00915908  0.35713808  0.01037842     0.16500
C1035       C  0.00708509  0.33332875  0.00521638     0.26000
C1036       C  0.98766332  0.32482211  0.99293965    -0.40300
C1037       C  0.97037409  0.34062184  0.98568104     0.32900
C1038       C  0.97276332  0.36463454  0.99021903     0.14600
F1039       F  0.02767155  0.36444484  0.02320686    -0.12700
F1040       F  0.95099643  0.33275632  0.97458675    -0.13200
F1041       F  0.02431290  0.31850066  0.01192268    -0.15500
F1042       F  0.95628930  0.37956939  0.98204726    -0.14000
F1043       F  0.03405158  0.39884560  0.99302682    -0.14000
F1044       F  0.96040296  0.44695394  0.03287301    -0.15500
C1045       C  0.84023931  0.66429299  0.05460667     0.14600
C1046       C  0.84672631  0.64300083  0.04396356     0.01600
C1047       C  0.82910988  0.62658181  0.03867203     0.16500
C1048       C  0.80579514  0.63076969  0.04506121     0.26000
C1049       C  0.79965176  0.65127533  0.05718540    -0.40400
C1050       C  0.81696558  0.66824397  0.06140302     0.33000
C1051       C  0.87184941  0.63661910  0.04064400     0.01600
F1052       F  0.83475139  0.60552553  0.02913750    -0.12700
F1053       F  0.81151632  0.68808416  0.07331772    -0.13200
C1054       C  0.88727813  0.63678373  0.05968975     0.16500
C1055       C  0.90987902  0.62746919  0.05753595     0.26000
C1056       C  0.91738030  0.61743500  0.03642654    -0.40300
C1057       C  0.90239658  0.61821490  0.01712470     0.32900
C1058       C  0.87997197  0.62796058  0.01913887     0.14600
F1059       F  0.87998368  0.64454113  0.08085207    -0.12700
F1060       F  0.90940601  0.60930183  0.99631964    -0.13200
F1061       F  0.92380593  0.62679888  0.07656893    -0.15500
F1062       F  0.86594147  0.62844320  0.00017861    -0.14000
F1063       F  0.85662104  0.68082585  0.05934780    -0.14000
F1064       F  0.78973003  0.61363828  0.04158781    -0.15500
C1065       C  0.74582362  0.64944491  0.94775559     0.14600
C1066       C  0.73300954  0.66194361  0.96458797     0.01600
C1067       C  0.71504485  0.67698327  0.95734405     0.16500
C1068       C  0.70957650  0.67901859  0.93371157     0.26000
C1069       C  0.72209319  0.66610390  0.91675681    -0.40400
C1070       C  0.74042456  0.65142335  0.92414830     0.33000
C1071       C  0.73803472  0.65868679  0.98968433     0.01600
F1072       F  0.70219034  0.68908196  0.97325823    -0.12700
F1073       F  0.75341600  0.63907531  0.90857964    -0.13200
C1074       C  0.74538378  0.67761906  0.00353069     0.16500
C1075       C  0.75095458  0.67417714  0.02695127     0.26000
C1076       C  0.74896991  0.65188543  0.03701010    -0.40300
C1077       C  0.74120836  0.63306746  0.02334093     0.32900
C1078       C  0.73586613  0.63640782  0.99984123     0.14600
F1079       F  0.74760019  0.69931659  0.99425012    -0.12700
F1080       F  0.73947398  0.61134632  0.03254928    -0.13200
F1081       F  0.75826897  0.69260245  0.03997487    -0.15500
F1082       F  0.72844834  0.61789356  0.98696577    -0.14000
F1083       F  0.76376012  0.63535302  0.95421955    -0.14000
F1084       F  0.69127739  0.69281290  0.92767924    -0.15500
C1085       C  0.67631298  0.64936476  0.09252836     0.14600
C1086       C  0.67094030  0.62542055  0.09496197     0.01600
C1087       C  0.68772885  0.60875332  0.08790496     0.16500
C1088       C  0.70999234  0.61582808  0.08042839     0.26000
C1089       C  0.71576568  0.63970441  0.07925935    -0.40400
C1090       C  0.69853726  0.65640866  0.08474005     0.33000
C1091       C  0.64891250  0.61782076  0.10683328     0.01600
F1092       F  0.68298198  0.58551894  0.08943872    -0.12700
F1093       F  0.70389698  0.67955661  0.08437424    -0.13200
C1094       C  0.62682841  0.62520283  0.09900898     0.16500
C1095       C  0.60628768  0.61807206  0.11048287     0.26000
C1096       C  0.60736046  0.60324558  0.12997781    -0.40300
C1097       C  0.62952638  0.59613142  0.13792966     0.32900
C1098       C  0.64998974  0.60338224  0.12656739     0.14600
F1099       F  0.62509083  0.63883993  0.07984042    -0.12700
F1100       F  0.63153572  0.58259367  0.15714455    -0.13200
F1101       F  0.58533457  0.62500870  0.10192449    -0.15500
F1102       F  0.67099339  0.59665321  0.13522748    -0.14000
F1103       F  0.66075412  0.66595321  0.09950234    -0.14000
F1104       F  0.72661561  0.59929594  0.07643367    -0.15500
C1105       C  0.17588498  0.63603494  0.11979393     0.14600
C1106       C  0.16853191  0.61253120  0.11995468     0.01600
C1107       C  0.18387293  0.59533861  0.12843888     0.16500
C1108       C  0.20675885  0.60123680  0.13477189     0.26000
C1109       C  0.21445570  0.62457056  0.13363393    -0.40400
C1110       C  0.19867112  0.64198508  0.12658126     0.33000
C1111       C  0.14628212  0.60557670  0.10848928     0.01600
F1112       F  0.17713954  0.57255549  0.12917399    -0.12700
F1113       F  0.20603383  0.66444643  0.12420906    -0.13200
C1114       C  0.14686628  0.59029427  0.08926216     0.16500
C1115       C  0.12625818  0.58405484  0.07778026     0.26000
C1116       C  0.10448483  0.59293641  0.08525178    -0.40300
C1117       C  0.10391838  0.60847641  0.10435625     0.32900
C1118       C  0.12462725  0.61470703  0.11586665     0.14600
F1119       F  0.16757894  0.58181363  0.08119011    -0.12700
F1120       F  0.08327078  0.61704641  0.11244187    -0.13200
F1121       F  0.12776684  0.56979473  0.05889303    -0.15500
F1122       F  0.12347978  0.62928043  0.13453698    -0.14000
F1123       F  0.16172517  0.65292947  0.11112380    -0.14000
F1124       F  0.22203986  0.58381541  0.13980094    -0.15500
C1125       C  0.32690233  0.62361586  0.18143876     0.14600
C1126       C  0.34487766  0.63652583  0.17066263     0.01600
C1127       C  0.33881518  0.65333039  0.15397105     0.16500
C1128       C  0.31558005  0.65542038  0.14655640     0.26000
C1129       C  0.29808047  0.64044295  0.15533238    -0.40400
C1130       C  0.30384690  0.62512247  0.17349683     0.33000
C1131       C  0.36970731  0.62914654  0.17353167     0.01600
F1132       F  0.35564203  0.66614027  0.14321670    -0.12700
F1133       F  0.28799750  0.60956573  0.18173245    -0.13200
C1134       C  0.37571025  0.60573232  0.16880342     0.16500
C1135       C  0.39876751  0.59808804  0.17072686     0.26000
C1136       C  0.41666687  0.61366719  0.17722175    -0.40300
C1137       C  0.41093718  0.63731965  0.18139070     0.32900
C1138       C  0.38757861  0.64499499  0.17964459     0.14600
F1139       F  0.35922070  0.59022406  0.16160397    -0.12700
F1140       F  0.42777375  0.65279697  0.18775909    -0.13200
F1141       F  0.40365083  0.57541203  0.16544572    -0.15500
F1142       F  0.38236899  0.66773271  0.18426130    -0.14000
F1143       F  0.33208280  0.60789015  0.19828007    -0.14000
F1144       F  0.31049244  0.67086876  0.12943919    -0.15500
C1145       C  0.89498227  0.42116998  0.65563874     0.14600
C1146       C  0.88805299  0.40810696  0.67507442     0.01600
C1147       C  0.90407654  0.39256139  0.68523969     0.16500
C1148       C  0.92647404  0.38950719  0.67544270     0.26000
C1149       C  0.93317451  0.40235264  0.65565496    -0.40400
C1150       C  0.91726660  0.41838420  0.64608938     0.33000
C1151       C  0.86377750  0.41071137  0.68386965     0.01600
F1152       F  0.89776582  0.37985452  0.70412067    -0.12700
F1153       F  0.92332422  0.43140269  0.62731069    -0.13200
C1154       C  0.84500398  0.40437828  0.66949678     0.16500
C1155       C  0.82217231  0.41126026  0.67504187     0.26000
C1156       C  0.81765276  0.42469785  0.69514531    -0.40300
C1157       C  0.83631055  0.42962246  0.71037176     0.32900
C1158       C  0.85919488  0.42264914  0.70477037     0.14600
F1159       F  0.84903518  0.39272977  0.64924818    -0.12700
F1160       F  0.83254401  0.44197702  0.73025037    -0.13200
F1161       F  0.80492147  0.40643319  0.65963403    -0.15500
F1162       F  0.87707346  0.42898415  0.71891566    -0.14000
F1163       F  0.88000071  0.43666157  0.64580776    -0.14000
F1164       F  0.94114157  0.37339091  0.68468017    -0.15500
C1165       C  0.08410667  0.45354488  0.59705598     0.14600
C1166       C  0.08454218  0.43632896  0.61440111     0.01600
C1167       C  0.10615974  0.42940748  0.62357857     0.16500
C1168       C  0.12700176  0.43988488  0.61589298     0.26000
C1169       C  0.12664842  0.45738476  0.59864129    -0.40400
C1170       C  0.10488635  0.46392757  0.58920801     0.33000
C1171       C  0.06232537  0.42575817  0.62281924     0.01600
F1172       F  0.10702201  0.41281538  0.64036634    -0.12700
F1173       F  0.10365790  0.47988798  0.57186202    -0.13200
C1174       C  0.05665132  0.40247945  0.61722099     0.16500
C1175       C  0.03447905  0.39349732  0.62269352     0.26000
C1176       C  0.01773056  0.40750596  0.63417362    -0.40300
C1177       C  0.02390235  0.43037568  0.64090202     0.32900
C1178       C  0.04597077  0.43945356  0.63514462     0.14600
F1179       F  0.07206043  0.38892163  0.60519615    -0.12700
F1180       F  0.00790888  0.44461787  0.65125046    -0.13200
F1181       F  0.02891054  0.37143606  0.61579007    -0.15500
F1182       F  0.05107886  0.46198452  0.64075196    -0.14000
F1183       F  0.06348135  0.46000706  0.58738095    -0.14000
F1184       F  0.14741659  0.43335681  0.62591333    -0.15500
C1185       C  0.55969919  0.40621031  0.60549992     0.14600
C1186       C  0.56927194  0.42869179  0.60286184     0.01600
C1187       C  0.55580412  0.44619568  0.59210409     0.16500
C1188       C  0.53246167  0.44184610  0.58606290     0.26000
C1189       C  0.52228659  0.42000548  0.59084304    -0.40400
C1190       C  0.53632128  0.40197953  0.59972215     0.33000
C1191       C  0.59146824  0.43481640  0.61476776     0.01600
F1192       F  0.56473580  0.46800938  0.58910698    -0.12700
F1193       F  0.52672976  0.38085842  0.60477244    -0.13200
C1194       C  0.61264572  0.42344585  0.60934153     0.16500
C1195       C  0.63318493  0.42898998  0.62152697     0.26000
C1196       C  0.63287023  0.44617501  0.63919105    -0.40300
C1197       C  0.61143431  0.45692607  0.64498746     0.32900
C1198       C  0.59103356  0.45129524  0.63295163     0.14600
F1199       F  0.61350862  0.40733479  0.59194310    -0.12700
F1200       F  0.61001359  0.47261784  0.66271607    -0.13200
F1201       F  0.65345938  0.41814971  0.61547023    -0.15500
F1202       F  0.57060547  0.46161946  0.63945703    -0.14000
F1203       F  0.57221460  0.38902410  0.61589659    -0.14000
F1204       F  0.51911221  0.45969285  0.57799570    -0.15500
C1205       C  0.35441315  0.43763710  0.53905048     0.14600
C1206       C  0.36303874  0.43230758  0.56119173     0.01600
C1207       C  0.34762194  0.43244135  0.58029920     0.16500
C1208       C  0.32421770  0.43906486  0.57755560     0.26000
C1209       C  0.31591261  0.44597966  0.55565599    -0.40400
C1210       C  0.33105230  0.44455837  0.53631198     0.33000
C1211       C  0.38853089  0.42997346  0.56510619     0.01600
F1212       F  0.35560028  0.42726392  0.60186539    -0.12700
F1213       F  0.32334833  0.45041126  0.51482978    -0.13200
C1214       C  0.40026998  0.44796991  0.57693311     0.16500
C1215       C  0.42382881  0.44558900  0.58262986     0.26000
C1216       C  0.43622465  0.42522536  0.57648619    -0.40300
C1217       C  0.42482759  0.40750800  0.56383415     0.32900
C1218       C  0.40104714  0.40990116  0.55810138     0.14600
F1219       F  0.38864543  0.46766281  0.58353898    -0.12700
F1220       F  0.43625228  0.38735913  0.55841948    -0.13200
F1221       F  0.43442277  0.46288334  0.59497211    -0.15500
F1222       F  0.38996251  0.39220936  0.54682089    -0.14000
F1223       F  0.36896255  0.43747573  0.52033933    -0.14000
F1224       F  0.31022345  0.44040614  0.59664039    -0.15500
C1225       C  0.50908773  0.42832875  0.46500566     0.14600
C1226       C  0.49796678  0.41043759  0.47763536     0.01600
C1227       C  0.49161836  0.38971501  0.46593118     0.16500
C1228       C  0.49640720  0.38687388  0.44218016     0.26000
C1229       C  0.50740378  0.40480121  0.42948471    -0.40400
C1230       C  0.51367835  0.42559025  0.44118067     0.33000
C1231       C  0.49344490  0.41310385  0.50305457     0.01600
F1232       F  0.48032619  0.37232895  0.47743497    -0.12700
F1233       F  0.52501994  0.44299642  0.42976460    -0.13200
C1234       C  0.48041794  0.43216507  0.51183453     0.16500
C1235       C  0.47624833  0.43449498  0.53579971     0.26000
C1236       C  0.48483230  0.41770161  0.55139211    -0.40300
C1237       C  0.49773906  0.39864776  0.54258765     0.32900
C1238       C  0.50214428  0.39644965  0.51873838     0.14600
F1239       F  0.47142448  0.44834773  0.49715834    -0.12700
F1240       F  0.50566079  0.38180760  0.55711704    -0.13200
F1241       F  0.46422107  0.45337791  0.54380139    -0.15500
F1242       F  0.51519230  0.37812639  0.51097343    -0.14000
F1243       F  0.51611786  0.44824196  0.47589106    -0.14000
F1244       F  0.48958923  0.36682094  0.43146954    -0.15500
C1245       C  0.15183140  0.01885862  0.97195010     0.14600
C1246       C  0.17094699  0.03427484  0.97390773     0.01600
C1247       C  0.19339636  0.02627622  0.96767474     0.16500
C1248       C  0.19643839  0.00375156  0.95836239     0.26000
C1249       C  0.17715164  0.98877644  0.95549348    -0.40400
C1250       C  0.15495748  0.99623303  0.96301580     0.33000
C1251       C  0.16684685  0.05924401  0.98006551     0.01600
F1252       F  0.21225498  0.04051025  0.97008338    -0.12700
F1253       F  0.13600007  0.98221993  0.96013233    -0.13200
C1254       C  0.15503790  0.06534618  0.00069993     0.16500
C1255       C  0.14734313  0.08833898  0.00438134     0.26000
C1256       C  0.15134954  0.10564641  0.98753650    -0.40300
C1257       C  0.16432690  0.09985800  0.96750526     0.32900
C1258       C  0.17206439  0.07687043  0.96384012     0.14600
F1259       F  0.14978026  0.04872296  0.01665709    -0.12700
F1260       F  0.16734936  0.11575048  0.95029651    -0.13200
F1261       F  0.13464885  0.09343258  0.02374427    -0.15500
F1262       F  0.18274361  0.07139029  0.94340158    -0.14000
F1263       F  0.12984236  0.02625643  0.97719204    -0.14000
F1264       F  0.21816042  0.99665256  0.95180383    -0.15500
C1265       C  0.00205002  0.41692293  0.76394017     0.14600
C1266       C  0.99261528  0.39822301  0.75107604     0.01600
C1267       C  0.98645774  0.37747553  0.76275990     0.16500
C1268       C  0.99012031  0.37536076  0.78672754     0.26000
C1269       C  0.99937060  0.39415620  0.79957931    -0.40400
C1270       C  0.00522053  0.41498626  0.78795239     0.33000
C1271       C  0.98977473  0.40016976  0.72545670     0.01600
F1272       F  0.97666490  0.35932775  0.75098861    -0.12700
F1273       F  0.01507976  0.43314412  0.79963302    -0.13200
C1274       C  0.00008739  0.38349951  0.71052905     0.16500
C1275       C  0.99690009  0.38485529  0.68648964     0.26000
C1276       C  0.98341495  0.40290220  0.67686038    -0.40300
C1277       C  0.97376109  0.42005385  0.69161903     0.32900
C1278       C  0.97682245  0.41866370  0.71573198     0.14600
F1279       F  0.01318450  0.36578965  0.71925075    -0.12700
F1280       F  0.96102500  0.43788590  0.68266203    -0.13200
F1281       F  0.00603686  0.36785819  0.67261284    -0.15500
F1282       F  0.96646405  0.43493291  0.72964005    -0.14000
F1283       F  0.00896593  0.43683922  0.75311381    -0.14000
F1284       F  0.98435618  0.35504453  0.79744221    -0.15500
C1285       C  0.09368838  0.27131517  0.97094861     0.14600
C1286       C  0.10824887  0.25883967  0.95547941     0.01600
C1287       C  0.11308110  0.26836158  0.93351010     0.16500
C1288       C  0.10266996  0.28937614  0.92665787     0.26000
C1289       C  0.08729353  0.30139326  0.94170534    -0.40400
C1290       C  0.08338398  0.29249788  0.96416640     0.30600
C1291       C  0.11591049  0.23465079  0.96097260     0.01600
F1292       F  0.12744443  0.25690301  0.91842464    -0.12700
F1293       F  0.06841921  0.30348454  0.97901263    -0.13200
C1294       C  0.10761628  0.21598746  0.94735062     0.16500
C1295       C  0.11274790  0.19291359  0.95329196     0.26000
C1296       C  0.12634718  0.18792408  0.97295150    -0.40300
C1297       C  0.13556672  0.20652682  0.98608588     0.32900
C1298       C  0.13027751  0.22979985  0.98018631     0.14600
F1299       F  0.09340070  0.22007288  0.92895982    -0.12700
F1300       F  0.14844247  0.20215087  0.00533895    -0.13200
F1301       F  0.10359157  0.17526502  0.94031031    -0.15500
F1302       F  0.13868025  0.24755325  0.99349385    -0.14000
F1303       F  0.08828350  0.26225684  0.99207378    -0.14000
F1304       F  0.10757524  0.29793244  0.90521203    -0.15500
C1305       C  0.11469794  0.77835950  0.96357710     0.14600
C1306       C  0.12127778  0.75673805  0.95385488     0.01600
C1307       C  0.13752125  0.75638160  0.93545257     0.16500
C1308       C  0.14711190  0.77723571  0.92696301     0.26000
C1309       C  0.14071954  0.79900761  0.93676770    -0.40400
C1310       C  0.12424045  0.79928235  0.95510857     0.33000
C1311       C  0.11223802  0.73438466  0.96349888     0.01600
F1312       F  0.14464276  0.73568316  0.92611286    -0.12700
F1313       F  0.11670998  0.81981191  0.96444114    -0.13200
C1314       C  0.09957226  0.71870440  0.94944398     0.16500
C1315       C  0.09419753  0.69615681  0.95742199     0.26000
C1316       C  0.10158625  0.68888640  0.97952628    -0.40300
C1317       C  0.11301125  0.70508028  0.99406420     0.32900
C1318       C  0.11815035  0.72767367  0.98618553     0.14600
F1319       F  0.09333130  0.72490810  0.92758588    -0.12700
F1320       F  0.12025802  0.69858085  0.01552434    -0.13200
F1321       F  0.08361635  0.68082342  0.94276918    -0.15500
F1322       F  0.13035709  0.74245480  0.00013926    -0.14000
F1323       F  0.09873090  0.77922575  0.98109616    -0.14000
F1324       F  0.16321038  0.77592873  0.90959710    -0.15500
C1325       C  0.08253370  0.56570078  0.96198373     0.14600
C1326       C  0.06282635  0.55832498  0.97461555     0.01600
C1327       C  0.05214628  0.57399173  0.99036447     0.16500
C1328       C  0.06152298  0.59649975  0.99387094     0.26000
C1329       C  0.08145457  0.60371179  0.98134772    -0.40400
C1330       C  0.09169681  0.58810645  0.96526172     0.33000
C1331       C  0.05397086  0.53411485  0.97119902     0.01600
F1332       F  0.03314530  0.56720444  0.00285267    -0.12700
F1333       F  0.11073182  0.59459716  0.95262599    -0.13200
C1334       C  0.06839692  0.51494364  0.97633110     0.16500
C1335       C  0.06203047  0.49224858  0.96962404     0.26000
C1336       C  0.04092343  0.48816631  0.95761248    -0.40300
C1337       C  0.02572784  0.50731194  0.95400924     0.32900
C1338       C  0.03228949  0.53005655  0.96058663     0.14600
F1339       F  0.08921160  0.51836020  0.98711094    -0.12700
F1340       F  0.00459473  0.50417354  0.94381553    -0.13200
F1341       F  0.07735809  0.47465172  0.97375655    -0.15500
F1342       F  0.01799477  0.54828689  0.95547818    -0.14000
F1343       F  0.09292575  0.55111760  0.94633735    -0.14000
F1344       F  0.05172430  0.61080467  0.01009489    -0.15500
C1345       C  0.31918288  0.91818212  0.63671984     0.14600
C1346       C  0.32892781  0.90873598  0.65694501     0.01600
C1347       C  0.31576394  0.89270184  0.67014311     0.16500
C1348       C  0.29318147  0.88611425  0.66299364     0.26000
C1349       C  0.28373121  0.89527790  0.64242740    -0.40400
C1350       C  0.29690372  0.91151384  0.62953162     0.33000
C1351       C  0.35288524  0.91591069  0.66374612     0.01600
F1352       F  0.32479110  0.88349427  0.68986430    -0.12700
F1353       F  0.28819600  0.92085002  0.60970090    -0.13200
C1354       C  0.35747060  0.93948526  0.66889048     0.16500
C1355       C  0.38041201  0.94730862  0.67195459     0.26000
C1356       C  0.39945749  0.93164971  0.66999405    -0.40300
C1357       C  0.39474075  0.90786008  0.66528862     0.32900
C1358       C  0.37164403  0.90006143  0.66234213     0.14600
F1359       F  0.33964189  0.95516881  0.67021448    -0.12700
F1360       F  0.41243342  0.89210326  0.66346543    -0.13200
F1361       F  0.38386002  0.97054711  0.67551194    -0.15500
F1362       F  0.36765961  0.87721744  0.65710210    -0.14000
F1363       F  0.33158318  0.93349242  0.62352538    -0.14000
F1364       F  0.28088801  0.87036531  0.67570207    -0.15500
C1365       C  0.23692920  0.91407389  0.70287321     0.14600
C1366       C  0.22265310  0.89726617  0.71378628     0.01600
C1367       C  0.21347745  0.87881391  0.70041822     0.16500
C1368       C  0.21888264  0.87684093  0.67679388     0.26000
C1369       C  0.23341181  0.89338433  0.66587108    -0.40400
C1370       C  0.24218943  0.91220566  0.67906416     0.33000
C1371       C  0.21751264  0.89849595  0.73912820     0.01600
F1372       F  0.19917671  0.86264941  0.71028670    -0.12700
F1373       F  0.25562894  0.92885966  0.66887977    -0.13200
C1374       C  0.20587417  0.91792131  0.74886438     0.16500
C1375       C  0.19989250  0.91829002  0.77255174     0.26000
C1376       C  0.20527165  0.89912824  0.78690384    -0.40300
C1377       C  0.21720552  0.87985649  0.77712016     0.32900
C1378       C  0.22335630  0.87961331  0.75356435     0.14600
F1379       F  0.19949719  0.93615548  0.73523499    -0.12700
F1380       F  0.22332466  0.86131092  0.79040154    -0.13200
F1381       F  0.18790020  0.93693898  0.78117197    -0.15500
F1382       F  0.23515606  0.86087764  0.74481974    -0.14000
F1383       F  0.24618775  0.93198401  0.71539098    -0.14000
F1384       F  0.21039487  0.85830906  0.66463381    -0.15500
C1385       C  0.97200878  0.17016957  0.50525031     0.14600
C1386       C  0.99362511  0.16039682  0.49872924     0.01600
C1387       C  0.01156316  0.17511536  0.49076148     0.16500
C1388       C  0.00782589  0.19926774  0.48915779     0.26000
C1389       C  0.98618945  0.20914862  0.49565587    -0.40400
C1390       C  0.96833601  0.19435154  0.50381210     0.33000
C1391       C  0.99736977  0.13483839  0.50042012     0.01600
F1392       F  0.03251858  0.16601657  0.48413711    -0.12700
F1393       F  0.94693822  0.20301240  0.50913872    -0.13200
C1394       C  0.98535020  0.11943331  0.48565234     0.16500
C1395       C  0.98771348  0.09520084  0.48822149     0.26000
C1396       C  0.00194505  0.08588179  0.50587076    -0.40300
C1397       C  0.01438751  0.10150195  0.52032921     0.32900
C1398       C  0.01220884  0.12573280  0.51748052     0.14600
F1399       F  0.97127956  0.12791632  0.46871369    -0.12700
F1400       F  0.02775663  0.09351590  0.53802597    -0.13200
F1401       F  0.97624785  0.08091814  0.47320017    -0.15500
F1402       F  0.02387827  0.14037949  0.53202035    -0.14000
F1403       F  0.95441467  0.15620549  0.51295095    -0.14000
F1404       F  0.02531953  0.21313121  0.48116994    -0.15500
C1405       C  0.16066214  0.88308002  0.60692122     0.14600
C1406       C  0.15359094  0.90611446  0.61176938     0.01600
C1407       C  0.16881759  0.92109429  0.62387686     0.16500
C1408       C  0.19135555  0.91358040  0.62982154     0.26000
C1409       C  0.19899919  0.89093836  0.62368096    -0.40400
C1410       C  0.18317672  0.87555960  0.61278931     0.33000
C1411       C  0.13175269  0.91534250  0.60148784     0.01600
F1412       F  0.16228665  0.94344389  0.62876078    -0.12700
F1413       F  0.18999548  0.85360357  0.60667961    -0.13200
C1414       C  0.10968751  0.90862899  0.60994996     0.16500
C1415       C  0.08921727  0.91725199  0.59963940     0.26000
C1416       C  0.09054317  0.93263350  0.58055458    -0.40300
C1417       C  0.11278192  0.93869021  0.57176901     0.32900
C1418       C  0.13311277  0.93028053  0.58224881     0.14600
F1419       F  0.10800708  0.89402572  0.62842609    -0.12700
F1420       F  0.11494692  0.95225256  0.55257345    -0.13200
F1421       F  0.06820035  0.91107972  0.60880139    -0.15500
F1422       F  0.15426495  0.93636775  0.57329713    -0.14000
F1423       F  0.14634191  0.86841485  0.59499260    -0.14000
F1424       F  0.20634061  0.92917731  0.63956404    -0.15500
C1425       C  0.62037261  0.91571585  0.61431841     0.14600
C1426       C  0.63078499  0.92840002  0.59606168     0.01600
C1427       C  0.61910965  0.94816373  0.58734532     0.16500
C1428       C  0.59785551  0.95553466  0.59717104     0.26000
C1429       C  0.58768939  0.94309602  0.61566366    -0.40400
C1430       C  0.59891864  0.92290735  0.62391473     0.33000
C1431       C  0.65473877  0.92231355  0.58771155     0.01600
F1432       F  0.62849298  0.96052248  0.56949151    -0.12700
F1433       F  0.58981425  0.91096324  0.64218728    -0.13200
C1434       C  0.65995622  0.89984966  0.57886604     0.16500
C1435       C  0.68319863  0.89346706  0.57383785     0.26000
C1436       C  0.70146377  0.90945907  0.57759656    -0.40300
C1437       C  0.69610135  0.93220711  0.58530464     0.32900
C1438       C  0.67299547  0.93861012  0.59025764     0.14600
F1439       F  0.64262806  0.88389525  0.57582886    -0.12700
F1440       F  0.71352008  0.94785378  0.58932443    -0.13200
F1441       F  0.68802104  0.87127513  0.56676627    -0.15500
F1442       F  0.66866412  0.96027806  0.59908213    -0.14000
F1443       F  0.63161507  0.89710873  0.62371871    -0.14000
F1444       F  0.58715630  0.97486640  0.58861348    -0.15500
C1445       C  0.81373207  0.91805417  0.53501454     0.14600
C1446       C  0.83142448  0.90220157  0.54120977     0.01600
C1447       C  0.82529175  0.88184034  0.55348454     0.16500
C1448       C  0.80217389  0.87831455  0.56090170     0.26000
C1449       C  0.78479609  0.89500487  0.55607445    -0.40400
C1450       C  0.79067356  0.91458956  0.54252070     0.33000
C1451       C  0.85637529  0.90882112  0.53799099     0.01600
F1452       F  0.84196125  0.86604195  0.55939483    -0.12700
F1453       F  0.77479724  0.93177450  0.53875408    -0.13200
C1454       C  0.87060188  0.91217840  0.55760599     0.16500
C1455       C  0.89331666  0.92096234  0.55522916     0.26000
C1456       C  0.90225804  0.92672177  0.53319713    -0.40300
C1457       C  0.88819613  0.92309534  0.51349843     0.32900
C1458       C  0.86545172  0.91414697  0.51587303     0.14600
F1459       F  0.86201174  0.90818420  0.57926916    -0.12700
F1460       F  0.89653043  0.92811691  0.49196341    -0.13200
F1461       F  0.90607291  0.92514587  0.57465258    -0.15500
F1462       F  0.85215858  0.91095030  0.49663373    -0.14000
F1463       F  0.81917715  0.93810641  0.52362400    -0.14000
F1464       F  0.79700048  0.85931863  0.57405333    -0.15500
C1465       C  0.72465467  0.91519392  0.49934061     0.14600
C1466       C  0.72711782  0.89367192  0.48751413     0.01600
C1467       C  0.73283689  0.87352266  0.50027129     0.16500
C1468       C  0.73673336  0.87504681  0.52421692     0.26000
C1469       C  0.73463371  0.89659113  0.53586613    -0.40400
C1470       C  0.72808989  0.91655501  0.52339838     0.33000
C1471       C  0.72344269  0.89227162  0.46198696     0.01600
F1472       F  0.73516764  0.85247173  0.48946952    -0.12700
F1473       F  0.72597161  0.93750510  0.53441611    -0.13200
C1474       C  0.73663008  0.90628300  0.44678388     0.16500
C1475       C  0.73222015  0.90598507  0.42285960     0.26000
C1476       C  0.71474918  0.89131907  0.41351026    -0.40300
C1477       C  0.70195490  0.87687344  0.42881164     0.32900
C1478       C  0.70624076  0.87740840  0.45274124     0.14600
F1479       F  0.75395315  0.92019905  0.45512162    -0.12700
F1480       F  0.68441783  0.86300756  0.42091219    -0.13200
F1481       F  0.74530303  0.91993919  0.40890923    -0.15500
F1482       F  0.69290396  0.86400405  0.46702827    -0.14000
F1483       F  0.71882538  0.93488106  0.48757796    -0.14000
F1484       F  0.74260706  0.85549676  0.53617559    -0.15500
C1485       C  0.88973894  0.16647342  0.17201867     0.14600
C1486       C  0.87428053  0.15262779  0.15882680     0.01600
C1487       C  0.88274557  0.14125681  0.13880774     0.16500
C1488       C  0.90600991  0.14374413  0.13193962     0.26000
C1489       C  0.92149299  0.15787071  0.14476926    -0.40400
C1490       C  0.91313326  0.16937281  0.16484751     0.33000
C1491       C  0.84953836  0.14871064  0.16586921     0.01600
F1492       F  0.86851209  0.12714955  0.12611110    -0.12700
F1493       F  0.92737025  0.18377216  0.17715749    -0.13200
C1494       C  0.83145527  0.15328200  0.15004088     0.16500
C1495       C  0.80919372  0.14361578  0.15330889     0.26000
C1496       C  0.80446044  0.12940401  0.17274229    -0.40300
C1497       C  0.82187752  0.12715002  0.18989002     0.32900
C1498       C  0.84424387  0.13662602  0.18641918     0.14600
F1499       F  0.83584412  0.16585628  0.13052842    -0.12700
F1500       F  0.81753637  0.11512620  0.20973048    -0.13200
F1501       F  0.79295441  0.14684279  0.13650973    -0.15500
F1502       F  0.86119520  0.13243678  0.20231102    -0.14000
F1503       F  0.88210650  0.17737933  0.19160126    -0.14000
F1504       F  0.91352922  0.13192051  0.11278194    -0.15500
C1505       C  0.03725111  0.12134641  0.13752552     0.14600
C1506       C  0.05383934  0.13453310  0.12501471     0.01600
C1507       C  0.04823052  0.15759993  0.11873047     0.16500
C1508       C  0.02577730  0.16649659  0.12291967     0.26000
C1509       C  0.00846194  0.15252160  0.13343610    -0.40400
C1510       C  0.01470937  0.13023004  0.14166267     0.33000
C1511       C  0.07541470  0.12330212  0.11556039     0.01600
F1512       F  0.06381167  0.17082281  0.10668728    -0.12700
F1513       F  0.99845176  0.11611712  0.15161561    -0.13200
C1514       C  0.07344387  0.10406361  0.10036448     0.16500
C1515       C  0.09326671  0.09450869  0.08955683     0.26000
C1516       C  0.11564199  0.10397661  0.09365489    -0.40300
C1517       C  0.11765190  0.12311027  0.10908948     0.32900
C1518       C  0.09773020  0.13266864  0.11992313     0.14600
F1519       F  0.05208271  0.09510862  0.09515858    -0.12700
F1520       F  0.13893787  0.13231467  0.11408770    -0.13200
F1521       F  0.09031916  0.07661098  0.07425346    -0.15500
F1522       F  0.10023519  0.15103161  0.13476322    -0.14000
F1523       F  0.04244810  0.09926695  0.14445163    -0.14000
F1524       F  0.02042027  0.18827759  0.11521484    -0.15500
C1525       C  0.53462543  0.09141967  0.09823231     0.14600
C1526       C  0.54954316  0.11094853  0.09919559     0.01600
C1527       C  0.54075612  0.13307482  0.09301874     0.16500
C1528       C  0.51693317  0.13582025  0.08772304     0.26000
C1529       C  0.50173775  0.11649788  0.08866480    -0.40400
C1530       C  0.51092326  0.09419829  0.09316734     0.33000
C1531       C  0.57332571  0.10822367  0.10909103     0.01600
F1532       F  0.55480871  0.15221360  0.09378443    -0.12700
F1533       F  0.49662019  0.07523452  0.09380267    -0.13200
C1534       C  0.59355042  0.11228532  0.09570448     0.16500
C1535       C  0.61577200  0.10746219  0.10486241     0.26000
C1536       C  0.61797389  0.09826956  0.12739632    -0.40300
C1537       C  0.59777082  0.09500015  0.14098438     0.32900
C1538       C  0.57570749  0.10012835  0.13200071     0.14600
F1539       F  0.59171331  0.11983872  0.07345958    -0.12700
F1540       F  0.59940379  0.08678921  0.16302811    -0.13200
F1541       F  0.63500146  0.11046363  0.09127039    -0.15500
F1542       F  0.55651016  0.09688456  0.14560403    -0.14000
F1543       F  0.54285440  0.06975275  0.10335571    -0.14000
F1544       F  0.50837083  0.15755643  0.08353751    -0.15500
C1545       C  0.34098511  0.09604626  0.04102893     0.14600
C1546       C  0.34750859  0.11976703  0.04199984     0.01600
C1547       C  0.33023570  0.13692928  0.03827113     0.16500
C1548       C  0.30696959  0.13043622  0.03368689     0.26000
C1549       C  0.30057483  0.10663958  0.03257195    -0.40400
C1550       C  0.31795896  0.08956443  0.03624018     0.33000
C1551       C  0.37201798  0.12605431  0.04837045     0.01600
F1552       F  0.33588064  0.15997041  0.03913283    -0.12700
F1553       F  0.31256931  0.06643263  0.03652261    -0.13200
C1554       C  0.39103263  0.11511456  0.03705532     0.16500
C1555       C  0.41359867  0.11638077  0.04636999     0.26000
C1556       C  0.41788059  0.12959268  0.06660204    -0.40300
C1557       C  0.39925681  0.14234890  0.07660205     0.32900
C1558       C  0.37653133  0.14040327  0.06777475     0.14600
F1559       F  0.38746686  0.10183756  0.01775881    -0.12700
F1560       F  0.40279689  0.15551733  0.09597759    -0.13200
F1561       F  0.43051428  0.10265970  0.03692545    -0.15500
F1562       F  0.35870680  0.15099574  0.07942209    -0.14000
F1563       F  0.35673851  0.07896513  0.04586972    -0.14000
F1564       F  0.29075595  0.14740495  0.03019322    -0.15500
C1565       C  0.48640406  0.11968779  0.01141949     0.14600
C1566       C  0.48395467  0.14252586  0.00280520     0.01600
C1567       C  0.47473848  0.16016344  0.01726920     0.16500
C1568       C  0.46749351  0.15486963  0.03990981     0.26000
C1569       C  0.46980986  0.13201537  0.04843713    -0.40400
C1570       C  0.47967606  0.11455594  0.03421354     0.33000
C1571       C  0.49045842  0.14775194  0.97852175     0.01600
F1572       F  0.47240309  0.18235910  0.00927533    -0.12700
F1573       F  0.48184226  0.09234177  0.04218699    -0.13200
C1574       C  0.47713608  0.13855481  0.96023720     0.16500
C1575       C  0.48348850  0.14291056  0.93719869     0.26000
C1576       C  0.50342725  0.15644596  0.93202136    -0.40300
C1577       C  0.51659379  0.16591236  0.95042816     0.32900
C1578       C  0.51011210  0.16159510  0.97351447     0.14600
F1579       F  0.45790463  0.12535287  0.96474633    -0.12700
F1580       F  0.53635496  0.17836672  0.94614905    -0.13200
F1581       F  0.46993097  0.13405597  0.91997250    -0.15500
F1582       F  0.52345487  0.17024583  0.99101833    -0.14000
F1583       F  0.49527820  0.10239993  0.99770727    -0.14000
F1584       F  0.45849725  0.17202976  0.05367250    -0.15500
C1585       C  0.72698454  0.82535316  0.31883331     0.14600
C1586       C  0.74764128  0.83629691  0.32655308     0.01600
C1587       C  0.76591943  0.83999740  0.31042399     0.16500
C1588       C  0.76397914  0.83197700  0.28747720     0.26000
C1589       C  0.74401383  0.81965649  0.28033883    -0.40400
C1590       C  0.72536831  0.81679283  0.29602684     0.33000
C1591       C  0.75109786  0.84197175  0.35165277     0.01600
F1592       F  0.78645590  0.84968512  0.31731223    -0.12700
F1593       F  0.70606910  0.80463785  0.28953871    -0.13200
C1594       C  0.74781084  0.82467169  0.36875621     0.16500
C1595       C  0.75361830  0.82909697  0.39200053     0.26000
C1596       C  0.76350887  0.85068505  0.39855627    -0.40300
C1597       C  0.76609149  0.86820428  0.38159627     0.32900
C1598       C  0.75959093  0.86403338  0.35852614     0.14600
F1599       F  0.74047971  0.80287010  0.36275517    -0.12700
F1600       F  0.77537026  0.88932766  0.38723210    -0.13200
F1601       F  0.75129126  0.81152721  0.40763768    -0.15500
F1602       F  0.76203820  0.88148253  0.34276418    -0.14000
F1603       F  0.70871616  0.82213379  0.33363566    -0.14000
F1604       F  0.78251756  0.83431944  0.27283120    -0.15500
C1605       C  0.74025428  0.92711634  0.22731209     0.14600
C1606       C  0.73000665  0.90968836  0.21342103     0.01600
C1607       C  0.71580285  0.91628775  0.19473032     0.16500
C1608       C  0.71238035  0.93999803  0.18960512     0.26000
C1609       C  0.72302362  0.95756726  0.20323213    -0.40400
C1610       C  0.73675948  0.95082895  0.22232774     0.33000
C1611       C  0.73424286  0.88462687  0.21844121     0.01600
F1612       F  0.70577574  0.89970883  0.18103912    -0.12700
F1613       F  0.74640907  0.96718542  0.23652595    -0.13200
C1614       C  0.71620816  0.87063922  0.22747619     0.16500
C1615       C  0.72052046  0.84726856  0.23328010     0.26000
C1616       C  0.74276457  0.83736830  0.22964006    -0.40300
C1617       C  0.76064796  0.85115306  0.22003562     0.32900
C1618       C  0.75647098  0.87470217  0.21464638     0.14600
F1619       F  0.69456481  0.87978277  0.23106170    -0.12700
F1620       F  0.78231207  0.84200709  0.21667246    -0.13200
F1621       F  0.70299066  0.83416478  0.24244267    -0.15500
F1622       F  0.77409531  0.88788124  0.20575137    -0.14000
F1623       F  0.75347950  0.92111514  0.24589082    -0.14000
F1624       F  0.69946338  0.94564816  0.17071112    -0.15500
C1625       C  0.97277971  0.67654416  0.96523540     0.14600
C1626       C  0.98494912  0.66846758  0.98482998     0.01600
C1627       C  0.97250485  0.66533486  0.00576995     0.16500
C1628       C  0.94857142  0.67048190  0.00718162     0.26000
C1629       C  0.93634581  0.67829026  0.98751899    -0.40400
C1630       C  0.94871412  0.68115067  0.96648627     0.33000
C1631       C  0.01062971  0.66382567  0.98364283     0.01600
F1632       F  0.98351642  0.65705361  0.02488803    -0.12700
F1633       F  0.93776042  0.68938984  0.94731123    -0.13200
C1634       C  0.02576214  0.67398044  0.00007948     0.16500
C1635       C  0.04971039  0.66903267  0.99960372     0.26000
C1636       C  0.05923731  0.65426704  0.98240427    -0.40300
C1637       C  0.04435906  0.64468478  0.96548090     0.32900
C1638       C  0.02022793  0.64916806  0.96625387     0.14600
F1639       F  0.01738156  0.68882177  0.01663178    -0.12700
F1640       F  0.05320659  0.63099148  0.94823101    -0.13200
F1641       F  0.06358409  0.67809548  0.01647388    -0.15500
F1642       F  0.00617109  0.63867365  0.95036840    -0.14000
F1643       F  0.98435174  0.68077431  0.94502952    -0.14000
F1644       F  0.93728931  0.66741715  0.02773952    -0.15500
C1645       C  0.79548055  0.78441731  0.11559813     0.14600
C1646       C  0.77509595  0.77646206  0.12686864     0.01600
C1647       C  0.76099555  0.75978599  0.11544221     0.16500
C1648       C  0.76760794  0.75073935  0.09360457     0.26000
C1649       C  0.78867020  0.75784817  0.08299557    -0.40400
C1650       C  0.80229160  0.77507843  0.09406162     0.33000
C1651       C  0.76986748  0.78402249  0.15126005     0.01600
F1652       F  0.74149997  0.75126223  0.12597746    -0.12700
F1653       F  0.82228964  0.78296532  0.08397524    -0.13200
C1654       C  0.74796166  0.79352623  0.15766843     0.16500
C1655       C  0.74295099  0.79896966  0.18106356     0.26000
C1656       C  0.75974096  0.79496829  0.19835761    -0.40300
C1657       C  0.78187069  0.78641262  0.19179829     0.32900
C1658       C  0.78685550  0.78091418  0.16860777     0.14600
F1659       F  0.73127142  0.79708176  0.14136202    -0.12700
F1660       F  0.79843662  0.78239962  0.20815191    -0.13200
F1661       F  0.72128797  0.80676459  0.18699015    -0.15500
F1662       F  0.80794158  0.77125411  0.16332301    -0.14000
F1663       F  0.80906042  0.80108003  0.12566721    -0.14000
F1664       F  0.75413076  0.73400501  0.08351893    -0.15500
C1665       C  0.78644454  0.77476405  0.66738706     0.14600
C1666       C  0.77270755  0.76476604  0.64976910     0.01600
C1667       C  0.75380265  0.75025314  0.65607800     0.16500
C1668       C  0.74793668  0.74696698  0.67962854     0.26000
C1669       C  0.76092558  0.75818747  0.69714363    -0.40400
C1670       C  0.78068809  0.77142408  0.69075308     0.33000
C1671       C  0.77731769  0.77116298  0.62509920     0.01600
F1672       F  0.74065283  0.73983516  0.63939905    -0.12700
F1673       F  0.79396738  0.78200017  0.70726102    -0.13200
C1674       C  0.79931732  0.76687594  0.61495624     0.16500
C1675       C  0.80490876  0.77596655  0.59305057     0.26000
C1676       C  0.78871918  0.78989955  0.58086846    -0.40300
C1677       C  0.76624516  0.79316403  0.59055716     0.32900
C1678       C  0.76063629  0.78389075  0.61244096     0.14600
F1679       F  0.81562673  0.75424581  0.62654197    -0.12700
F1680       F  0.75009249  0.80650765  0.57958996    -0.13200
F1681       F  0.82627107  0.77110671  0.58382458    -0.15500
F1682       F  0.73934433  0.78860330  0.62191482    -0.14000
F1683       F  0.80466460  0.78901473  0.66195512    -0.14000
F1684       F  0.72876851  0.73410906  0.68516526    -0.15500
C1685       C  0.77114520  0.72082883  0.80928997     0.14600
C1686       C  0.75347800  0.72344701  0.82627091     0.01600
C1687       C  0.73204007  0.73365795  0.81979302     0.16500
C1688       C  0.72876282  0.74188596  0.79710700     0.26000
C1689       C  0.74650872  0.73937281  0.78033240    -0.40400
C1690       C  0.76759289  0.72852270  0.78652384     0.33000
C1691       C  0.75824702  0.71713469  0.85093474     0.01600
F1692       F  0.71450566  0.73621620  0.83559236    -0.12700
F1693       F  0.78552108  0.72716957  0.77101399    -0.13200
C1694       C  0.75553962  0.73389128  0.86877561     0.16500
C1695       C  0.76232449  0.72883132  0.89157892     0.26000
C1696       C  0.77244887  0.70706948  0.89698082    -0.40300
C1697       C  0.77458631  0.69009938  0.87927277     0.32900
C1698       C  0.76728880  0.69497115  0.85658597     0.14600
F1699       F  0.74770695  0.75575408  0.86388352    -0.12700
F1700       F  0.78403666  0.66882569  0.88384224    -0.13200
F1701       F  0.76057233  0.74592494  0.90795413    -0.15500
F1702       F  0.76944987  0.67812407  0.83999088    -0.14000
F1703       F  0.79248699  0.71228304  0.81510663    -0.14000
F1704       F  0.70859068  0.75306034  0.79165941    -0.15500
C1705       C  0.75303569  0.62687994  0.72952981     0.14600
C1706       C  0.73925379  0.64323595  0.71770697     0.01600
C1707       C  0.72245310  0.63515921  0.70184779     0.16500
C1708       C  0.71973356  0.61115096  0.69755694     0.26000
C1709       C  0.73356081  0.59456380  0.70936669    -0.40400
C1710       C  0.75009781  0.60285456  0.72562868     0.33000
C1711       C  0.74198624  0.66869100  0.72232636     0.01600
F1712       F  0.70898219  0.65063120  0.69006340    -0.12700
F1713       F  0.76315877  0.58783415  0.73833577    -0.13200
C1714       C  0.76336722  0.68014076  0.71789102     0.16500
C1715       C  0.76571925  0.70421901  0.72226044     0.26000
C1716       C  0.74683519  0.71707339  0.73134837    -0.40300
C1717       C  0.72557177  0.70558867  0.73592164     0.32900
C1718       C  0.72312189  0.68166441  0.73135579     0.14600
F1719       F  0.78186479  0.66802693  0.70912769    -0.12700
F1720       F  0.70706010  0.71774275  0.74458267    -0.13200
F1721       F  0.78652183  0.71489448  0.71817299    -0.15500
F1722       F  0.70240188  0.67104963  0.73605506    -0.14000
F1723       F  0.76906371  0.63417794  0.74532273    -0.14000
F1724       F  0.70402812  0.60439043  0.68125965    -0.15500
C1725       C  0.51363895  0.90413974  0.75790734     0.14600
C1726       C  0.50178730  0.89244759  0.73987808     0.01600
C1727       C  0.51433651  0.88577321  0.71982754     0.16500
C1728       C  0.53820215  0.89086296  0.71777857     0.26000
C1729       C  0.54994409  0.90279575  0.73564428    -0.40400
C1730       C  0.53752297  0.90930007  0.75578085     0.33000
C1731       C  0.47639661  0.88715772  0.74192835     0.01600
F1732       F  0.50347290  0.87423303  0.70224634    -0.12700
F1733       F  0.54858591  0.92052271  0.77341063    -0.13200
C1734       C  0.46052408  0.89570627  0.72540369     0.16500
C1735       C  0.43672792  0.89003188  0.72688033     0.26000
C1736       C  0.42829345  0.87574988  0.74491030    -0.40300
C1737       C  0.44409641  0.86765272  0.76175654     0.32900
C1738       C  0.46793341  0.87322269  0.76020900     0.14600
F1739       F  0.46805067  0.90981082  0.70797870    -0.12700
F1740       F  0.43667013  0.85353563  0.77920378    -0.13200
F1741       F  0.42179016  0.89900974  0.71101614    -0.15500
F1742       F  0.48291270  0.86435003  0.77615421    -0.14000
F1743       F  0.50193495  0.91103876  0.77734385    -0.14000
F1744       F  0.54977334  0.88484965  0.69798284    -0.15500
C1745       C  0.23823113  0.83443718  0.87366110     0.14600
C1746       C  0.25217125  0.82548355  0.89164747     0.01600
C1747       C  0.27572783  0.82005119  0.88688020     0.16500
C1748       C  0.28523791  0.82373314  0.86477037     0.26000
C1749       C  0.27131018  0.83247046  0.84667674    -0.40400
C1750       C  0.24768524  0.83775524  0.85133394     0.33000
C1751       C  0.24233708  0.82080876  0.91519594     0.01600
F1752       F  0.28943097  0.81041797  0.90351663    -0.12700
F1753       F  0.23392326  0.84673693  0.83446224    -0.13200
C1754       C  0.22360283  0.80510438  0.91809285     0.16500
C1755       C  0.21742803  0.79719534  0.94030952     0.26000
C1756       C  0.22985082  0.80478644  0.96001609    -0.40300
C1757       C  0.24749413  0.82171178  0.95724557     0.32900
C1758       C  0.25350243  0.82979795  0.93507843     0.14600
F1759       F  0.21255038  0.79593133  0.89931156    -0.12700
F1760       F  0.26056062  0.82872804  0.97562307    -0.13200
F1761       F  0.20030232  0.78088759  0.94247749    -0.15500
F1762       F  0.27125986  0.84542783  0.93289688    -0.14000
F1763       F  0.21557280  0.84027284  0.87780785    -0.14000
F1764       F  0.30794554  0.81788348  0.86086933    -0.15500
C1765       C  0.20058750  0.86060603  0.00412775     0.14600
C1766       C  0.21598696  0.87347883  0.01818287     0.01600
C1767       C  0.23473193  0.86185731  0.02887646     0.16500
C1768       C  0.23868577  0.83796175  0.02466954     0.26000
C1769       C  0.22356619  0.82513678  0.01014208    -0.40400
C1770       C  0.20418320  0.83665517  0.00035939     0.33000
C1771       C  0.21323316  0.89923657  0.02052864     0.01600
F1772       F  0.24987664  0.87393451  0.04251246    -0.12700
F1773       F  0.18879034  0.82466577  0.98692148    -0.13200
C1774       C  0.20770052  0.90953415  0.04208450     0.16500
C1775       C  0.20490880  0.93386959  0.04403291     0.26000
C1776       C  0.20802155  0.94836560  0.02451382    -0.40300
C1777       C  0.21399992  0.93801659  0.00305815     0.32900
C1778       C  0.21629782  0.91367948  0.00103748     0.14600
F1779       F  0.20478336  0.89597730  0.06119618    -0.12700
F1780       F  0.21720115  0.95142530  0.98389923    -0.13200
F1781       F  0.19988327  0.94330394  0.06516840    -0.15500
F1782       F  0.22183795  0.90417269  0.98005224    -0.14000
F1783       F  0.18210834  0.87132253  0.99392163    -0.14000
F1784       F  0.25812041  0.82786490  0.03356958    -0.15500
C1785       C  0.45703085  0.65245962  0.24936337     0.14600
C1786       C  0.47302868  0.67059319  0.24455603     0.01600
C1787       C  0.46446711  0.69353899  0.24198215     0.16500
C1788       C  0.44045174  0.69814549  0.24343629     0.26000
C1789       C  0.42446363  0.68001272  0.24796615    -0.40400
C1790       C  0.43299237  0.65718382  0.25130240     0.33000
C1791       C  0.49848280  0.66562163  0.24149019     0.01600
F1792       F  0.47942767  0.71160320  0.23821044    -0.12700
F1793       F  0.41795618  0.63926262  0.25539131    -0.13200
C1794       C  0.51020689  0.67280444  0.22115401     0.16500
C1795       C  0.53410038  0.66833189  0.21817043     0.26000
C1796       C  0.54669853  0.65619990  0.23518733    -0.40300
C1797       C  0.53513618  0.64895753  0.25549171     0.32900
C1798       C  0.51125855  0.65376132  0.25871562     0.14600
F1799       F  0.49834373  0.68353124  0.20380330    -0.12700
F1800       F  0.54707970  0.63745208  0.27225826    -0.13200
F1801       F  0.54482967  0.67499929  0.19817788    -0.15500
F1802       F  0.50070086  0.64712671  0.27880637    -0.14000
F1803       F  0.46456776  0.63001571  0.25131611    -0.14000
F1804       F  0.43283992  0.72049304  0.24082470    -0.15500
C1805       C  0.27736976  0.77921129  0.12497804     0.14600
C1806       C  0.25710368  0.76997529  0.11461227     0.01600
C1807       C  0.24409522  0.75300960  0.12676401     0.16500
C1808       C  0.25170250  0.74481607  0.14839395     0.26000
C1809       C  0.27271449  0.75310769  0.15809927    -0.40400
C1810       C  0.28518491  0.77075527  0.14637742     0.33000
C1811       C  0.25096063  0.77623305  0.09027266     0.01600
F1812       F  0.22474310  0.74332650  0.11708235    -0.12700
F1813       F  0.30499047  0.77990649  0.15565345    -0.13200
C1814       C  0.26757105  0.77287641  0.07245266     0.16500
C1815       C  0.26155609  0.77651100  0.04926917     0.26000
C1816       C  0.23881074  0.78352790  0.04327828    -0.40300
C1817       C  0.22233338  0.78769655  0.06097310     0.32900
C1818       C  0.22837290  0.78412122  0.08435616     0.14600
F1819       F  0.28931891  0.76474376  0.07735186    -0.12700
F1820       F  0.20013733  0.79399950  0.05553460    -0.13200
F1821       F  0.27778708  0.77232207  0.03243853    -0.15500
F1822       F  0.21205203  0.78787488  0.10117033    -0.14000
F1823       F  0.28987118  0.79620377  0.11413378    -0.14000
F1824       F  0.23921900  0.72774947  0.15911910    -0.15500
C1825       C  0.27168354  0.81278728  0.61102234     0.14600
C1826       C  0.25675048  0.79339629  0.60920044     0.01600
C1827       C  0.25028980  0.78132538  0.62944087     0.16500
C1828       C  0.25909188  0.78826669  0.65118901     0.26000
C1829       C  0.27466314  0.80735224  0.65300709    -0.40400
C1830       C  0.28060298  0.81967292  0.63261673     0.33000
C1831       C  0.24846849  0.78574058  0.58596203     0.01600
F1832       F  0.23579033  0.76255950  0.62805732    -0.12700
F1833       F  0.29489840  0.83860558  0.63349791    -0.13200
C1834       C  0.26249112  0.77109034  0.57200796     0.16500
C1835       C  0.25637655  0.76640885  0.54884758     0.26000
C1836       C  0.23597930  0.77619908  0.53928410    -0.40300
C1837       C  0.22150417  0.79013892  0.55366393     0.32900
C1838       C  0.22773675  0.79490348  0.57674350     0.14600
F1839       F  0.28277186  0.76229491  0.58050616    -0.12700
F1840       F  0.20166024  0.79983558  0.54509335    -0.13200
F1841       F  0.27140785  0.75391215  0.53533307    -0.15500
F1842       F  0.21406786  0.80932810  0.58980601    -0.14000
F1843       F  0.27779520  0.82497863  0.59172709    -0.14000
F1844       F  0.25312074  0.77569735  0.67026896    -0.15500
C1845       C  0.24128734  0.73327892  0.36783619     0.14600
C1846       C  0.24741156  0.72005873  0.38743823     0.01600
C1847       C  0.25855407  0.69835802  0.38414625     0.16500
C1848       C  0.26476043  0.69072938  0.36172824     0.26000
C1849       C  0.26008056  0.70473872  0.34218062    -0.40400
C1850       C  0.24755943  0.72577801  0.34547438     0.33000
C1851       C  0.24415644  0.73016169  0.41112361     0.01600
F1852       F  0.26460550  0.68515236  0.40272233    -0.12700
F1853       F  0.24266553  0.74000199  0.32731672    -0.13200
C1854       C  0.22997314  0.71924592  0.42793258     0.16500
C1855       C  0.22583319  0.73008255  0.44958365     0.26000
C1856       C  0.23678661  0.75149504  0.45515822    -0.40300
C1857       C  0.25171330  0.76178208  0.43852755     0.32900
C1858       C  0.25515935  0.75138528  0.41678121     0.14600
F1859       F  0.21967280  0.69840711  0.42312648    -0.12700
F1860       F  0.26311180  0.78208230  0.44333272    -0.13200
F1861       F  0.21047049  0.72008494  0.46458128    -0.15500
F1862       F  0.26950071  0.76203674  0.40119390    -0.14000
F1863       F  0.22996794  0.75404012  0.37045069    -0.14000
F1864       F  0.27577835  0.66981413  0.35919573    -0.15500
C1865       C  0.20934997  0.64654880  0.51461728     0.14600
C1866       C  0.23064640  0.65789916  0.51957753     0.01600
C1867       C  0.24943011  0.64454018  0.52799644     0.16500
C1868       C  0.24698802  0.62038998  0.53138923     0.26000
C1869       C  0.22555004  0.60911882  0.52685682    -0.40400
C1870       C  0.20675887  0.62247408  0.51843581     0.33000
C1871       C  0.23309450  0.68361371  0.51603413     0.01600
F1872       F  0.26998942  0.65498774  0.53360814    -0.12700
F1873       F  0.18602805  0.61212498  0.51330072    -0.13200
C1874       C  0.21680577  0.69917187  0.52607252     0.16500
C1875       C  0.21774280  0.72310115  0.52114996     0.26000
C1876       C  0.23528219  0.73210314  0.50650468    -0.40300
C1877       C  0.25246485  0.71684555  0.49763190     0.32900
C1878       C  0.25121990  0.69276339  0.50208872     0.14600
F1879       F  0.19975694  0.69113740  0.54047805    -0.12700
F1880       F  0.27013453  0.72523275  0.48422674    -0.13200
F1881       F  0.20081731  0.73737678  0.52983307    -0.15500
F1882       F  0.26717922  0.67829328  0.49200075    -0.14000
F1883       F  0.19111964  0.65873236  0.50565175    -0.14000
F1884       F  0.26539510  0.60822276  0.53998404    -0.15500
C1885       C  0.23467975  0.62389745  0.21278389     0.14600
C1886       C  0.23772797  0.64619340  0.22280676     0.01600
C1887       C  0.24509964  0.66481751  0.20866738     0.16500
C1888       C  0.24985427  0.66107855  0.18505211     0.26000
C1889       C  0.24707854  0.63874340  0.17513713    -0.40400
C1890       C  0.23921672  0.62024816  0.18912842     0.33000
C1891       C  0.23357137  0.64987249  0.24804342     0.01600
F1892       F  0.24836390  0.68645045  0.21791845    -0.12700
F1893       F  0.23748995  0.59831460  0.18026472    -0.13200
C1894       C  0.24608163  0.63680383  0.26445905     0.16500
C1895       C  0.24149739  0.63948950  0.28821625     0.26000
C1896       C  0.22417363  0.65523869  0.29609438    -0.40300
C1897       C  0.21216082  0.66884406  0.27962579     0.32900
C1898       C  0.21683990  0.66616807  0.25584790     0.14600
F1899       F  0.26286387  0.62144845  0.25746260    -0.12700
F1900       F  0.19505688  0.68393442  0.28633079    -0.13200
F1901       F  0.25423246  0.62677285  0.30349926    -0.15500
F1902       F  0.20432239  0.67884127  0.24034844    -0.14000
F1903       F  0.22749728  0.60558598  0.22597888    -0.14000
F1904       F  0.25746672  0.67917086  0.17182252    -0.15500
C1905       C  0.16731054  0.51362125  0.43781112     0.14600
C1906       C  0.17283339  0.50648967  0.46051740     0.01600
C1907       C  0.18118930  0.52331502  0.47643686     0.16500
C1908       C  0.18419760  0.54670446  0.46961321     0.26000
C1909       C  0.17942964  0.55348167  0.44666291    -0.40400
C1910       C  0.17083428  0.53673493  0.43090109     0.33000
C1911       C  0.16864133  0.48173809  0.46740899     0.01600
F1912       F  0.18689333  0.51702807  0.49841259    -0.12700
F1913       F  0.16515488  0.54289175  0.40886861    -0.13200
C1914       C  0.17698269  0.46326156  0.45333534     0.16500
C1915       C  0.16851609  0.44047612  0.45629641     0.26000
C1916       C  0.15213100  0.43559235  0.47392081    -0.40300
C1917       C  0.14573757  0.45357447  0.48950468     0.32900
C1918       C  0.15373352  0.47647818  0.48618052     0.14600
F1919       F  0.19213310  0.46759697  0.43562130    -0.12700
F1920       F  0.13030502  0.44927234  0.50698143    -0.13200
F1921       F  0.17447565  0.42391564  0.44036929    -0.15500
F1922       F  0.14521480  0.49378835  0.50007403    -0.14000
F1923       F  0.15786814  0.49828812  0.42237256    -0.14000
F1924       F  0.19250881  0.56253773  0.48517008    -0.15500
C1925       C  0.99044587  0.12832990  0.25530373     0.14600
C1926       C  0.97788038  0.14710970  0.24583803     0.01600
C1927       C  0.96948977  0.16487631  0.26061051     0.16500
C1928       C  0.97423666  0.16425404  0.28443147     0.26000
C1929       C  0.98763938  0.14598809  0.29384564    -0.40400
C1930       C  0.99529537  0.12775164  0.27914573     0.33000
C1931       C  0.97493075  0.14908268  0.22039586     0.01600
F1932       F  0.95692928  0.18296237  0.25186136    -0.12700
F1933       F  0.00857724  0.11005790  0.28760391    -0.13200
C1934       C  0.95918372  0.13460163  0.20839736     0.16500
C1935       C  0.95656919  0.13672940  0.18427272     0.26000
C1936       C  0.96934606  0.15373115  0.17189876    -0.40300
C1937       C  0.98515949  0.16810051  0.18405900     0.32900
C1938       C  0.98804751  0.16566344  0.20802518     0.14600
F1939       F  0.94618009  0.11861423  0.22011719    -0.12700
F1940       F  0.99742374  0.18494912  0.17277231    -0.13200
F1941       F  0.94181267  0.12200900  0.17300119    -0.15500
F1942       F  0.00372696  0.17948936  0.21923397    -0.14000
F1943       F  0.99891820  0.11111677  0.24126484    -0.14000
F1944       F  0.96556201  0.18139020  0.29836708    -0.15500
C1945       C  0.08779576  0.27334033  0.45757508     0.14600
C1946       C  0.10339593  0.28353181  0.44153243     0.01600
C1947       C  0.10757785  0.27200230  0.42024940     0.16500
C1948       C  0.09564602  0.25131994  0.41470907     0.26000
C1949       C  0.07971219  0.24140696  0.43056981    -0.40400
C1950       C  0.07628843  0.25234307  0.45224461     0.33000
C1951       C  0.11329355  0.30724051  0.44602205     0.01600
F1952       F  0.12303235  0.28096465  0.40466223    -0.12700
F1953       F  0.06075171  0.24346483  0.46775387    -0.13200
C1954       C  0.12525929  0.31244598  0.46679972     0.16500
C1955       C  0.13138545  0.33564215  0.47227132     0.26000
C1956       C  0.12571837  0.35384808  0.45699032    -0.40300
C1957       C  0.11515610  0.34843543  0.43564420     0.32900
C1958       C  0.10894692  0.32542900  0.43022070     0.14600
F1959       F  0.13024405  0.29518868  0.48214198    -0.12700
F1960       F  0.10970930  0.36575411  0.42050492    -0.13200
F1961       F  0.14131336  0.34049753  0.49312449    -0.15500
F1962       F  0.09713715  0.32123329  0.41020985    -0.14000
F1963       F  0.08266612  0.28439096  0.47790747    -0.14000
F1964       F  0.09978552  0.24090031  0.39383764    -0.15500
C1965       C  0.11377823  0.81688365  0.49222186     0.14600
C1966       C  0.10924948  0.80877398  0.46964962     0.01600
C1967       C  0.09733650  0.82337127  0.45406576     0.16500
C1968       C  0.09123420  0.84628335  0.46052878     0.26000
C1969       C  0.09700890  0.85493405  0.48271367    -0.40400
C1970       C  0.10776416  0.83977129  0.49869674     0.33000
C1971       C  0.12004517  0.78666773  0.46136651     0.01600
F1972       F  0.09282068  0.81582952  0.43213302    -0.12700
F1973       F  0.11343211  0.84749571  0.52029779    -0.13200
C1974       C  0.11120518  0.76474060  0.46799709     0.16500
C1975       C  0.12206754  0.74406945  0.46018560     0.26000
C1976       C  0.14203851  0.74508904  0.44572237    -0.40300
C1977       C  0.15110839  0.76718270  0.43969199     0.32900
C1978       C  0.14012521  0.78769489  0.44730960     0.14600
F1979       F  0.09185417  0.76338028  0.48168971    -0.12700
F1980       F  0.17101619  0.76902375  0.42687513    -0.13200
F1981       F  0.11258785  0.72314961  0.46615948    -0.15500
F1982       F  0.14934255  0.80872015  0.44125447    -0.14000
F1983       F  0.12548860  0.80315491  0.50746202    -0.14000
F1984       F  0.08161344  0.86057356  0.44440118    -0.15500
C1985       C  0.05977013  0.02807385  0.47552316     0.14600
C1986       C  0.04583389  0.00871325  0.46942659     0.01600
C1987       C  0.02495768  0.01257556  0.45727182     0.16500
C1988       C  0.01894489  0.03517615  0.44999636     0.26000
C1989       C  0.03382978  0.05436012  0.45451948    -0.40400
C1990       C  0.05391650  0.05063584  0.46810404     0.33000
C1991       C  0.05461295  0.98453871  0.47340139     0.01600
F1992       F  0.01108651  0.99428099  0.45119223    -0.12700
F1993       F  0.06882036  0.06845644  0.47297502    -0.13200
C1994       C  0.04195919  0.96811267  0.48664940     0.16500
C1995       C  0.05138096  0.94579376  0.49098555     0.26000
C1996       C  0.07334227  0.93948452  0.48168043    -0.40300
C1997       C  0.08541176  0.95566806  0.46773067     0.32900
C1998       C  0.07620513  0.97787563  0.46367666     0.14600
F1999       F  0.02087447  0.97392284  0.49595675    -0.12700
F2000       F  0.10633879  0.94993695  0.45797534    -0.13200
F2001       F  0.03947097  0.93077733  0.50489311    -0.15500
F2002       F  0.08842270  0.99294801  0.45005582    -0.14000
F2003       F  0.07967621  0.02495067  0.48792216    -0.14000
F2004       F  0.99876504  0.03815521  0.43803138    -0.15500
C2005       C  0.96714929  0.88285743  0.49713010     0.14600
C2006       C  0.97898391  0.87837635  0.47606727     0.01600
C2007       C  0.96601582  0.87105045  0.45662463     0.16500
C2008       C  0.94176207  0.86765734  0.45846856     0.26000
C2009       C  0.93023464  0.87103270  0.47990987    -0.40400
C2010       C  0.94315888  0.87876502  0.49914299     0.33000
C2011       C  0.00491537  0.88026282  0.47517319     0.01600
F2012       F  0.97693566  0.86620014  0.43616050    -0.12700
F2013       F  0.93251881  0.88243556  0.51996430    -0.13200
C2014       C  0.01837121  0.86851453  0.49186495     0.16500
C2015       C  0.04232556  0.87268174  0.49364486     0.26000
C2016       C  0.05356486  0.88816026  0.47833185    -0.40300
C2017       C  0.04056842  0.89833508  0.46028088     0.32900
C2018       C  0.01632806  0.89469122  0.45889612     0.14600
F2019       F  0.00810792  0.85351617  0.50705276    -0.12700
F2020       F  0.05124018  0.91232656  0.44446325    -0.13200
F2021       F  0.05428440  0.86267510  0.51132668    -0.15500
F2022       F  0.00390444  0.90617509  0.44244436    -0.14000
F2023       F  0.97893842  0.89106558  0.51591185    -0.14000
F2024       F  0.92979983  0.85985757  0.43963683    -0.15500
C2025       C  0.25879291  0.37452239  0.46145879     0.14600
C2026       C  0.24188311  0.36325189  0.47516619     0.01600
C2027       C  0.24890273  0.34571999  0.49066860     0.16500
C2028       C  0.27253197  0.33951516  0.49246082     0.26000
C2029       C  0.28959922  0.35089059  0.47884290    -0.40400
C2030       C  0.28243040  0.36846057  0.46329533     0.33000
C2031       C  0.21696313  0.37010225  0.47361327     0.01600
F2032       F  0.23275985  0.33436485  0.50382330    -0.12700
F2033       F  0.29835285  0.38038552  0.45039413    -0.13200
C2034       C  0.20415073  0.36564434  0.45327981     0.16500
C2035       C  0.18062541  0.37235628  0.45181958     0.26000
C2036       C  0.16966445  0.38381284  0.47060687    -0.40300
C2037       C  0.18252565  0.38821987  0.49092686     0.32900
C2038       C  0.20596700  0.38138936  0.49243886     0.14600
F2039       F  0.21447285  0.35479386  0.43486541    -0.12700
F2040       F  0.17224199  0.39902461  0.50937865    -0.13200
F2041       F  0.16882503  0.36854984  0.43175848    -0.15500
F2042       F  0.21811234  0.38618636  0.51211651    -0.14000
F2043       F  0.25244835  0.39184438  0.44668785    -0.14000
F2044       F  0.27856163  0.32192557  0.50703737    -0.15500
C2045       C  0.50071348  0.29863506  0.31385909     0.14600
C2046       C  0.48248361  0.31409340  0.31978829     0.01600
C2047       C  0.47131298  0.32660598  0.30197221     0.16500
C2048       C  0.47637028  0.32182318  0.27860565     0.26000
C2049       C  0.49335792  0.30499573  0.27259584    -0.40400
C2050       C  0.50624584  0.29433538  0.29048546     0.33000
C2051       C  0.47286449  0.31483405  0.34387634     0.01600
F2052       F  0.45425043  0.34234220  0.30720949    -0.12700
F2053       F  0.52307488  0.27836278  0.28526098    -0.13200
C2054       C  0.48701478  0.31998330  0.36319198     0.16500
C2055       C  0.47732150  0.32073937  0.38568013     0.26000
C2056       C  0.45325603  0.31664471  0.38919373    -0.40300
C2057       C  0.43940159  0.31062990  0.36987523     0.32900
C2058       C  0.44909894  0.30965007  0.34758830     0.14600
F2059       F  0.51007429  0.32485235  0.36023819    -0.12700
F2060       F  0.41645340  0.30507223  0.37251741    -0.13200
F2061       F  0.49134474  0.32620555  0.40385435    -0.15500
F2062       F  0.43523187  0.30318445  0.32955639    -0.14000
F2063       F  0.51178445  0.28614639  0.33054192    -0.14000
F2064       F  0.46285958  0.33186495  0.26210613    -0.15500
C2065       C  0.51985619  0.36628546  0.23172660     0.14600
C2066       C  0.50324622  0.38027237  0.22044902     0.01600
C2067       C  0.48297468  0.36969280  0.21143465     0.16500
C2068       C  0.47939110  0.34549638  0.21364185     0.26000
C2069       C  0.49602394  0.33148103  0.22495604    -0.40400
C2070       C  0.51627571  0.34214284  0.23395054     0.33000
C2071       C  0.50729129  0.40579449  0.21758089     0.01600
F2072       F  0.46672717  0.38282542  0.20033153    -0.12700
F2073       F  0.53273404  0.32900401  0.24470239    -0.13200
C2074       C  0.52532088  0.41384742  0.20304510     0.16500
C2075       C  0.52820082  0.43785079  0.19892749     0.26000
C2076       C  0.51319476  0.45444494  0.20952897    -0.40300
C2077       C  0.49591501  0.44623334  0.22513908     0.32900
C2078       C  0.49287697  0.42218602  0.22889966     0.14600
F2079       F  0.53964485  0.39832555  0.19209069    -0.12700
F2080       F  0.48209467  0.46140136  0.23714084    -0.13200
F2081       F  0.54508313  0.44456033  0.18372990    -0.15500
F2082       F  0.47587371  0.41486790  0.24373058    -0.14000
F2083       F  0.53944682  0.37609501  0.24078034    -0.14000
F2084       F  0.45926452  0.33596630  0.20557789    -0.15500
C2085       C  0.25332121  0.18869293  0.99882230     0.14600
C2086       C  0.24419845  0.17261525  0.98275275     0.01600
C2087       C  0.25956072  0.16117773  0.96736761     0.16500
C2088       C  0.28369696  0.16554389  0.96818355     0.26000
C2089       C  0.29305331  0.18186559  0.98421079    -0.40400
C2090       C  0.27734409  0.19342593  0.99947146     0.33000
C2091       C  0.21877379  0.16716128  0.98275535     0.01600
F2092       F  0.25123726  0.14520929  0.95193315    -0.12700
F2093       F  0.28490335  0.20976535  0.01484870    -0.13200
C2094       C  0.20482260  0.17179639  0.96319654     0.16500
C2095       C  0.18081741  0.16655120  0.96347979     0.26000
C2096       C  0.17052127  0.15636415  0.98321900    -0.40300
C2097       C  0.18447132  0.15188675  0.00275001     0.32900
C2098       C  0.20832638  0.15726173  0.00255083     0.14600
F2099       F  0.21444484  0.18150371  0.94390369    -0.12700
F2100       F  0.17483777  0.14237954  0.02213350    -0.13200
F2101       F  0.16780861  0.17062710  0.94425759    -0.15500
F2102       F  0.22137161  0.15240735  0.02158594    -0.14000
F2103       F  0.23881483  0.20014666  0.01377789    -0.14000
F2104       F  0.29779574  0.15315730  0.95363977    -0.15500
C2105       C  0.45251409  0.28434052  0.15807729     0.14600
C2106       C  0.46938872  0.28586360  0.14027560     0.01600
C2107       C  0.49244162  0.29235030  0.14613933     0.16500
C2108       C  0.49867616  0.29599091  0.16949879     0.26000
C2109       C  0.48193455  0.29338583  0.18723080    -0.40400
C2110       C  0.45874690  0.28800581  0.18124879     0.33000
C2111       C  0.46310484  0.27827895  0.11626494     0.01600
F2112       F  0.50910117  0.29419947  0.12936078    -0.12700
F2113       F  0.44245030  0.28453941  0.19813769    -0.13200
C2114       C  0.44345560  0.28784051  0.10509546     0.16500
C2115       C  0.43493783  0.27783026  0.08452234     0.26000
C2116       C  0.44618627  0.25836048  0.07442080    -0.40300
C2117       C  0.46664601  0.24967642  0.08478696     0.32900
C2118       C  0.47491598  0.25940388  0.10560441     0.14600
F2119       F  0.43217167  0.30658806  0.11445286    -0.12700
F2120       F  0.47777847  0.23075472  0.07560577    -0.13200
F2121       F  0.41563983  0.28716102  0.07447975    -0.15500
F2122       F  0.49360000  0.24936821  0.11610315    -0.14000
F2123       F  0.43033780  0.27738197  0.15325413    -0.14000
F2124       F  0.52134770  0.30034274  0.17493905    -0.15500
C2125       C  0.48514260  0.26738058  0.65340349     0.14600
C2126       C  0.46317317  0.25872115  0.64668459     0.01600
C2127       C  0.44993627  0.24566148  0.66271783     0.16500
C2128       C  0.45807469  0.24226668  0.68541903     0.26000
C2129       C  0.47956693  0.25193653  0.69244529    -0.40400
C2130       C  0.49322524  0.26407755  0.67606487     0.33000
C2131       C  0.45325829  0.26554361  0.62386736     0.01600
F2132       F  0.42868305  0.23703029  0.65665330    -0.12700
F2133       F  0.51402520  0.27362797  0.68232871    -0.13200
C2134       C  0.46466198  0.25957832  0.60299971     0.16500
C2135       C  0.45660018  0.26821055  0.58169806     0.26000
C2136       C  0.43707251  0.28334298  0.58082812    -0.40300
C2137       C  0.42542973  0.28881967  0.60190032     0.32900
C2138       C  0.43334725  0.27988137  0.62305487     0.14600
F2139       F  0.48369249  0.24535761  0.60327714    -0.12700
F2140       F  0.40693959  0.30369750  0.60244067    -0.13200
F2141       F  0.46784682  0.26141998  0.56198840    -0.15500
F2142       F  0.42213247  0.28618291  0.64298233    -0.14000
F2143       F  0.49809238  0.28042220  0.63844963    -0.14000
F2144       F  0.44406960  0.23120137  0.70099056    -0.15500
C2145       C  0.49495085  0.20612567  0.80760585     0.14600
C2146       C  0.47845077  0.21641440  0.82277954     0.01600
C2147       C  0.46398125  0.23435919  0.81445921     0.16500
C2148       C  0.46668326  0.24275145  0.79191926     0.26000
C2149       C  0.48383393  0.23334273  0.77700904    -0.40400
C2150       C  0.49776030  0.21467851  0.78484783     0.33000
C2151       C  0.47605339  0.20924934  0.84746704     0.01600
F2152       F  0.44714979  0.24387218  0.82831378    -0.12700
F2153       F  0.51458914  0.20541225  0.77086639    -0.13200
C2154       C  0.47856083  0.22615249  0.86514403     0.16500
C2155       C  0.47135952  0.22136435  0.88788526     0.26000
C2156       C  0.46146043  0.19953842  0.89340441    -0.40300
C2157       C  0.46045205  0.18207795  0.87609293     0.32900
C2158       C  0.46791642  0.18682120  0.85332843     0.14600
F2159       F  0.48672345  0.24786416  0.86002648    -0.12700
F2160       F  0.45154988  0.16065020  0.88107250    -0.13200
F2161       F  0.47222666  0.23879699  0.90397493    -0.15500
F2162       F  0.46572589  0.17002858  0.83671937    -0.14000
F2163       F  0.50873454  0.18835951  0.81504040    -0.14000
F2164       F  0.45253678  0.26033638  0.78464012    -0.15500
C2165       C  0.50997325  0.12484549  0.71728159     0.14600
C2166       C  0.48851961  0.13626500  0.71343795     0.01600
C2167       C  0.46954218  0.12323123  0.70486376     0.16500
C2168       C  0.47203440  0.09928561  0.70009932     0.26000
C2169       C  0.49363219  0.08797805  0.70359742    -0.40400
C2170       C  0.51255082  0.10098278  0.71227874     0.33000
C2171       C  0.48637972  0.16188286  0.71764673     0.01600
F2172       F  0.44883780  0.13386348  0.70025645    -0.12700
F2173       F  0.53345234  0.09050236  0.71627939    -0.13200
C2174       C  0.50219617  0.17736310  0.70697574     0.16500
C2175       C  0.50135900  0.20130210  0.71188879     0.26000
C2176       C  0.48438364  0.21041493  0.72717456    -0.40300
C2177       C  0.46796228  0.19514268  0.73722275     0.32900
C2178       C  0.46905098  0.17102177  0.73263803     0.14600
F2179       F  0.51856119  0.16926010  0.69176330    -0.12700
F2180       F  0.45085445  0.20359906  0.75136594    -0.13200
F2181       F  0.51768108  0.21558067  0.70227028    -0.15500
F2182       F  0.45358234  0.15654209  0.74330786    -0.14000
F2183       F  0.52846937  0.13687948  0.72595661    -0.14000
F2184       F  0.45359167  0.08741015  0.69107576    -0.15500
loop_ 
_geom_bond_atom_site_label_1 
_geom_bond_atom_site_label_2 
_geom_bond_distance 
_geom_bond_site_symmetry_2 
_ccdc_geom_bond_type 
N1            C5   1.360       .  A
N1            C2   1.360       .  A
N1         C2176   1.442       .  S
C2            C3   1.382       .  A
C2         C2129   1.486       .  S
C3            C4   1.373       .  A
C3            H6   1.082       .  S
C4            C5   1.383       .  A
C4            H7   1.082       .  S
C5         C2149   1.483       .  S
N8           C12   1.347       .  A
N8            N9   1.323       .  A
N8          Cu16   2.081       .  S
N9           C10   1.346       .  A
N9          Cu15   2.084       .  S
C10          C11   1.385       .  A
C10          H13   1.083       .  S
C11          C12   1.386       .  A
C11        C2156   1.483       .  S
C12          H14   1.082       .  S
Cu15         N18   2.084       .  S
Cu16         N26   2.081   1_556  S
Cu17         N19   2.086   1_554  S
Cu17         N25   2.086       .  S
N18          C22   1.346       .  A
N18          N19   1.320       .  A
N19          C20   1.345   1_556  A
C20          C21   1.393   1_554  A
C20          H23   1.080       .  S
C21          C22   1.393       .  A
C21        C2089   1.501       .  S
C22          H24   1.080       .  S
N25          C29   1.347       .  A
N25          N26   1.323       .  A
N26          C27   1.347       .  A
C27          C28   1.385       .  A
C27          H30   1.082       .  S
C28          C29   1.386       .  A
C28        C2116   1.484       .  S
C29          H31   1.082       .  S
N32          C36   1.363       .  A
N32          C33   1.362       .  A
N32        C2069   1.446       .  S
C33          C34   1.380       .  A
C33        C2109   1.479       .  S
C34          C35   1.370       .  A
C34          H37   1.082       .  S
C35          C36   1.384       .  A
C35          H38   1.082       .  S
C36        C2049   1.489       .  S
N39          C43   1.352       .  A
N39          N40   1.322       .  A
N39         Cu47   2.100       .  S
N40          C41   1.340       .  A
N40         Cu46   2.065       .  S
C41          C42   1.383       .  A
C41          H44   1.081       .  S
C42          C43   1.393       .  A
C42        C2056   1.489       .  S
C43          H45   1.082       .  S
Cu46         N49   2.064       .  S
Cu47         N57   2.101       .  S
Cu48         N50   2.073       .  S
Cu48         N56   2.074       .  S
N49          C53   1.343       .  A
N49          N50   1.318       .  A
N50          C51   1.346       .  A
C51          C52   1.389       .  A
C51          H54   1.081       .  S
C52          C53   1.386       .  A
C52        C2029   1.485       .  S
C53          H55   1.081       .  S
N56          C60   1.342       .  A
N56          N57   1.323       .  A
N57          C58   1.349       .  A
C58          C59   1.395       .  A
C58          H61   1.081       .  S
C59          C60   1.387       .  A
C59        C2136   1.498       .  S
C60          H62   1.080       .  S
N63          C67   1.362       .  A
N63          C64   1.362       .  A
N63        C2016   1.443       .  S
C64          C65   1.382       .  A
C64        C1969   1.488       .  S
C65          C66   1.372       .  A
C65          H68   1.082       .  S
C66          C67   1.383       .  A
C66          H69   1.082       .  S
C67        C1996   1.487       .  S
N70          C74   1.349       .  A
N70          N71   1.323       .  A
N70         Cu78   2.093       .  S
N71          C72   1.344       .  A
N71         Cu77   2.074       .  S
C72          C73   1.383       .  A
C72          H75   1.082       .  S
C73          C74   1.388       .  A
C73        C1949   1.483       .  S
C74          H76   1.082       .  S
Cu77         N80   2.074       .  S
Cu78         N88   2.093       .  S
Cu79         N81   2.076       .  S
Cu79         N87   2.077       .  S
N80          C84   1.344       .  A
N80          N81   1.321       .  A
N81          C82   1.347   1_455  A
C82          C83   1.386       .  A
C82          H85   1.082       .  S
C83          C84   1.384   1_655  A
C83        C1929   1.481       .  S
C84          H86   1.082       .  S
N87          C91   1.343       .  A
N87          N88   1.323       .  A
N88          C89   1.349       .  A
C89          C90   1.392       .  A
C89          H92   1.081       .  S
C90          C91   1.385       .  A
C90        C1989   1.491       .  S
C91          H93   1.082       .  S
N94          C98   1.360       .  A
N94          C95   1.359       .  A
N94        C2036   1.442       .  S
C95          C96   1.381       .  A
C95        C1956   1.479       .  S
C96          C97   1.372       .  A
C96          H99   1.082       .  S
C97          C98   1.383       .  A
C97         H100   1.082       .  S
C98        C1916   1.485       .  S
N101        C105   1.350       .  A
N101        N102   1.322       .  A
N101       Cu109   2.091       .  S
N102        C103   1.341       .  A
N102       Cu108   2.062       .  S
C103        C104   1.380       .  A
C103        H106   1.083       .  S
C104        C105   1.389       .  A
C104       C1909   1.480       .  S
C105        H107   1.082       .  S
Cu108       N111   2.062       .  S
Cu109       N119   2.092       .  S
Cu110       N112   2.077       .  S
Cu110       N118   2.078       .  S
N111        C115   1.342       .  A
N111        N112   1.319       .  A
N112        C113   1.347       .  A
C113        C114   1.390       .  A
C113        H116   1.081       .  S
C114        C115   1.385       .  A
C114       C1896   1.486       .  S
C115        H117   1.081       .  S
N118        C122   1.342       .  A
N118        N119   1.324       .  A
N119        C120   1.349       .  A
C120        C121   1.389       .  A
C120        H123   1.081       .  S
C121        C122   1.384       .  A
C121       C1976   1.487       .  S
C122        H124   1.081       .  S
N125        C129   1.365       .  A
N125        C126   1.364       .  A
N125       C1876   1.443       .  S
C126        C127   1.382       .  A
C126       C1836   1.492       .  S
C127        C128   1.372       .  A
C127        H130   1.082       .  S
C128        C129   1.384       .  A
C128        H131   1.082       .  S
C129       C1856   1.494       .  S
N132        C136   1.346       .  A
N132        N133   1.323       .  A
N132       Cu140   2.082       .  S
N133        C134   1.346       .  A
N133       Cu139   2.089       .  S
C134        C135   1.388       .  A
C134        H137   1.081       .  S
C135        C136   1.389       .  A
C135       C1849   1.491       .  S
C136        H138   1.081       .  S
Cu139       N142   2.089       .  S
Cu140       N150   2.082       .  S
Cu141       N143   2.078       .  S
Cu141       N149   2.078       .  S
N142        C146   1.350       .  A
N142        N143   1.322       .  A
N143        C144   1.345       .  A
C144        C145   1.384       .  A
C144        H147   1.081       .  S
C145        C146   1.388       .  A
C145       C1789   1.483       .  S
C146        H148   1.082       .  S
N149        C153   1.345       .  A
N149        N150   1.322       .  A
N150        C151   1.348       .  A
C151        C152   1.388       .  A
C151        H154   1.082       .  S
C152        C153   1.386       .  A
C152       C1809   1.486       .  S
C153        H155   1.082       .  S
N156        C160   1.363   1_554  A
N156        C157   1.362       .  A
N156       C1769   1.448       .  S
C157        C158   1.382       .  A
C157       C1816   1.480       .  S
C158        C159   1.371   1_554  A
C158        H161   1.082       .  S
C159        C160   1.382       .  A
C159        H162   1.082       .  S
C160       C1756   1.487       .  S
N163        C167   1.351       .  A
N163        N164   1.324       .  A
N163       Cu171   2.103       .  S
N164        C165   1.344       .  A
N164       Cu170   2.079       .  S
C165        C166   1.383       .  A
C165        H168   1.082       .  S
C166        C167   1.390       .  A
C166       C1749   1.487       .  S
C167        H169   1.082       .  S
Cu170       N173   2.078       .  S
Cu171       N181   2.103       .  S
Cu172       N174   2.079       .  S
Cu172       N180   2.080       .  S
N173        C177   1.347       .  A
N173        N174   1.321       .  A
N174        C175   1.346       .  A
C175        C176   1.387       .  A
C175        H178   1.081       .  S
C176        C177   1.387       .  A
C176       C1736   1.485       .  S
C177        H179   1.081       .  S
N180        C184   1.344       .  A
N180        N181   1.323       .  A
N181        C182   1.351       .  A
C182        C183   1.392       .  A
C182        H185   1.081       .  S
C183        C184   1.386       .  A
C183       C1829   1.494       .  S
C184        H186   1.081       .  S
N187        C191   1.358       .  A
N187        C188   1.360       .  A
N187       C1716   1.440       .  S
C188        C189   1.385       .  A
C188       C1669   1.488       .  S
C189        C190   1.375       .  A
C189        H192   1.082       .  S
C190        C191   1.380       .  A
C190        H193   1.082       .  S
C191       C1689   1.480       .  S
N194        C198   1.349       .  A
N194        N195   1.323       .  A
N194       Cu202   2.095       .  S
N195        C196   1.345       .  A
N195       Cu201   2.079       .  S
C196        C197   1.385       .  A
C196        H199   1.082       .  S
C197        C198   1.390       .  A
C197       C1696   1.487       .  S
C198        H200   1.081       .  S
Cu201       N204   2.078       .  S
Cu202       N212   2.095   1_556  S
Cu203       N205   2.083       .  S
Cu203       N211   2.083       .  S
N204        C208   1.346       .  A
N204        N205   1.321   1_556  A
N205        C206   1.347       .  A
C206        C207   1.388   1_554  A
C206        H209   1.081       .  S
C207        C208   1.387       .  A
C207       C1629   1.487       .  S
C208        H210   1.081       .  S
N211        C215   1.345       .  A
N211        N212   1.323       .  A
N212        C213   1.351       .  A
C213        C214   1.389       .  A
C213        H216   1.082       .  S
C214        C215   1.385       .  A
C214       C1649   1.488       .  S
C215        H217   1.082       .  S
N218        C222   1.358       .  A
N218        C219   1.360       .  A
N218       C1616   1.440       .  S
C219        C220   1.383       .  A
C219       C1656   1.484       .  S
C220        C221   1.374       .  A
C220        H223   1.082       .  S
C221        C222   1.380       .  A
C221        H224   1.082       .  S
C222       C1589   1.479       .  S
N225        C229   1.350       .  A
N225        N226   1.323       .  A
N225       Cu233   2.097       .  S
N226        C227   1.342       .  A
N226       Cu232   2.066       .  S
C227        C228   1.382       .  A
C227        H230   1.082       .  S
C228        C229   1.391       .  A
C228       C1596   1.487       .  S
C229        H231   1.081       .  S
Cu232       N235   2.066       .  S
Cu233       N243   2.097       .  S
Cu234       N236   2.075       .  S
Cu234       N242   2.076       .  S
N235        C239   1.346       .  A
N235        N236   1.320       .  A
N236        C237   1.344       .  A
C237        C238   1.386       .  A
C237        H240   1.081       .  S
C238        C239   1.384       .  A
C238       C2009   1.480       .  S
C239        H241   1.081       .  S
N242        C246   1.343       .  A
N242        N243   1.322       .  A
N243        C244   1.350       .  A
C244        C245   1.392       .  A
C244        H247   1.081       .  S
C245        C246   1.386       .  A
C245       C1676   1.493       .  S
C246        H248   1.082       .  S
N249        C253   1.360       .  A
N249        C250   1.356       .  A
N249       C1569   1.436       .  S
C250        C251   1.380       .  A
C250       C1529   1.479       .  S
C251        C252   1.375       .  A
C251        H254   1.082       .  S
C252        C253   1.385       .  A
C252        H255   1.082       .  S
C253       C1556   1.490       .  S
N256        C260   1.350       .  A
N256        N257   1.322       .  A
N256       Cu264   2.093       .  S
N257        C258   1.342       .  A
N257       Cu263   2.073       .  S
C258        C259   1.385       .  A
C258        H261   1.081       .  S
C259        C260   1.391       .  A
C259       C1549   1.490       .  S
C260        H262   1.082       .  S
Cu263       N266   2.074       .  S
Cu264       N274   2.093       .  S
Cu265       N267   2.081       .  S
Cu265       N273   2.082       .  S
N266        C270   1.346   1_545  A
N266        N267   1.320       .  A
N267        C268   1.347   1_545  A
C268        C269   1.387       .  A
C268        H271   1.081       .  S
C269        C270   1.386       .  A
C269       C1776   1.485       .  S
C270        H272   1.081       .  S
N273        C277   1.345       .  A
N273        N274   1.323       .  A
N274        C275   1.349       .  A
C275        C276   1.390       .  A
C275        H278   1.081       .  S
C276        C277   1.386       .  A
C276       C1516   1.491       .  S
C277        H279   1.081       .  S
N280        C284   1.364       .  A
N280        C281   1.363       .  A
N280       C1936   1.445       .  S
C281        C282   1.382       .  A
C281       C1509   1.488   1_655  S
C282        C283   1.370       .  A
C282        H285   1.082       .  S
C283        C284   1.383       .  A
C283        H286   1.082       .  S
C284       C1489   1.487       .  S
N287        C291   1.347       .  A
N287        N288   1.322       .  A
N287       Cu295   2.086       .  S
N288        C289   1.345       .  A
N288       Cu294   2.083       .  S
C289        C290   1.388       .  A
C289        H292   1.082       .  S
C290        C291   1.390       .  A
C290       C1496   1.491       .  S
C291        H293   1.080       .  S
Cu294       N297   2.083       .  S
Cu295       N305   2.085       .  S
Cu296       N298   2.071       .  S
Cu296       N304   2.071       .  S
N297        C301   1.346       .  A
N297        N298   1.321       .  A
N298        C299   1.345   1_545  A
C299        C300   1.386       .  A
C299        H302   1.081       .  S
C300        C301   1.388   1_565  A
C300       C1609   1.487       .  S
C301        H303   1.081   1_545  S
N304        C308   1.343       .  A
N304        N305   1.323       .  A
N305        C306   1.349       .  A
C306        C307   1.386       .  A
C306        H309   1.082       .  S
C307        C308   1.382       .  A
C307       C1536   1.479       .  S
C308        H310   1.082       .  S
N311        C315   1.358       .  A
N311        C312   1.357       .  A
N311       C1469   1.437       .  S
C312        C313   1.382       .  A
C312       C1436   1.479       .  S
C313        C314   1.376       .  A
C313        H316   1.082       .  S
C314        C315   1.382       .  A
C314        H317   1.082       .  S
C315       C1449   1.484       .  S
N318        C322   1.346       .  A
N318        N319   1.323       .  A
N318       Cu326   2.086       .  S
N319        C320   1.347       .  A
N319       Cu325   2.077       .  S
C320        C321   1.384       .  A
C320        H323   1.082       .  S
C321        C322   1.386       .  A
C321       C1456   1.481       .  S
C322        H324   1.081       .  S
Cu325       N328   2.077   1_565  S
Cu326       N336   2.086   1_655  S
Cu327       N329   2.072   1_565  S
Cu327       N335   2.072       .  S
N328        C332   1.344       .  A
N328        N329   1.321   1_655  A
N329        C330   1.345       .  A
C330        C331   1.388       .  A
C330        H333   1.081       .  S
C331        C332   1.388   1_455  A
C331       C1396   1.489       .  S
C332        H334   1.081       .  S
N335        C339   1.343       .  A
N335        N336   1.321       .  A
N336        C337   1.349       .  A
C337        C338   1.390       .  A
C337        H340   1.081       .  S
C338        C339   1.386       .  A
C338       C1416   1.489       .  S
C339        H341   1.081       .  S
N342        C346   1.361       .  A
N342        C343   1.361       .  A
N342       C1369   1.445       .  S
C343        C344   1.382       .  A
C343       C1409   1.486       .  S
C344        C345   1.371       .  A
C344        H347   1.082       .  S
C345        C346   1.383       .  A
C345        H348   1.082       .  S
C346       C1349   1.483       .  S
N349        C353   1.351       .  A
N349        N350   1.321       .  A
N349       Cu357   2.096       .  S
N350        C351   1.341       .  A
N350       Cu356   2.062       .  S
C351        C352   1.385       .  A
C351        H354   1.080       .  S
C352        C353   1.394       .  A
C352       C1356   1.492       .  S
C353        H355   1.081       .  S
Cu356       N359   2.062   1_565  S
Cu357       N367   2.097       .  S
Cu358       N360   2.083       .  S
Cu358       N366   2.085   1_545  S
N359        C363   1.343       .  A
N359        N360   1.320       .  A
N360        C361   1.348       .  A
C361        C362   1.388       .  A
C361        H364   1.082       .  S
C362        C363   1.383       .  A
C362       C2169   1.481       .  S
C363        H365   1.081       .  S
N366        C370   1.345       .  A
N366        N367   1.326       .  A
N367        C368   1.350       .  A
C368        C369   1.386       .  A
C368        H371   1.082       .  S
C369        C370   1.382       .  A
C369       C1429   1.481       .  S
C370        H372   1.082       .  S
N373        C377   1.362       .  A
N373        C374   1.361       .  A
N373       C1636   1.443       .  S
C374        C375   1.382       .  A
C374       C1316   1.486       .  S
C375        C376   1.373       .  A
C375        H378   1.082       .  S
C376        C377   1.384       .  A
C376        H379   1.082       .  S
C377       C1329   1.487       .  S
N380        C384   1.348       .  A
N380        N381   1.322       .  A
N380       Cu388   2.080       .  S
N381        C382   1.344       .  A
N381       Cu387   2.080       .  S
C382        C383   1.385       .  A
C382        H385   1.082       .  S
C383        C384   1.387       .  A
C383       C1289   1.484       .  S
C384        H386   1.082       .  S
Cu387       N390   2.080       .  S
Cu388       N398   2.080       .  S
Cu389       N391   2.077       .  S
Cu389       N397   2.077       .  S
N390        C394   1.347       .  A
N390        N391   1.322       .  A
N391        C392   1.345       .  A
C392        C393   1.385       .  A
C392        H395   1.081   1_455  S
C393        C394   1.386       .  A
C393       C1269   1.482   1_455  S
C394        H396   1.082       .  S
N397        C401   1.346       .  A
N397        N398   1.320       .  A
N398        C399   1.343       .  A
C399        C400   1.391       .  A
C399        H402   1.078       .  S
C400        C401   1.390       .  A
C400       C1336   1.496       .  S
C401        H403   1.081       .  S
N404        C408   1.359       .  A
N404        C405   1.359       .  A
N404       C2096   1.442       .  S
C405        C406   1.383       .  A
C405       C1296   1.480       .  S
C406        C407   1.372       .  A
C406        H409   1.082       .  S
C407        C408   1.382       .  A
C407        H410   1.082       .  S
C408       C1256   1.483       .  S
N411        C415   1.347       .  A
N411        N412   1.321       .  A
N411       Cu419   2.085       .  S
N412        C413   1.345       .  A
N412       Cu418   2.076       .  S
C413        C414   1.388       .  A
C413        H416   1.080       .  S
C414        C415   1.390       .  A
C414       C1309   1.492       .  S
C415        H417   1.081       .  S
Cu418       N421   2.076       .  S
Cu419       N429   2.085       .  S
Cu420       N422   2.088       .  S
Cu420       N428   2.088       .  S
N421        C425   1.345       .  A
N421        N422   1.322       .  A
N422        C423   1.349       .  A
C423        C424   1.389       .  A
C423        H426   1.082       .  S
C424        C425   1.386       .  A
C424       C1376   1.488       .  S
C425        H427   1.082       .  S
N428        C432   1.346       .  A
N428        N429   1.324       .  A
N429        C430   1.348       .  A
C430        C431   1.384       .  A
C430        H433   1.082       .  S
C431        C432   1.383       .  A
C431       C1249   1.478       .  S
C432        H434   1.083       .  S
N435        C439   1.361       .  A
N435        C436   1.360       .  A
N435       C1236   1.445       .  S
C436        C437   1.380       .  A
C436       C1189   1.478       .  S
C437        C438   1.370       .  A
C437        H440   1.082       .  S
C438        C439   1.382       .  A
C438        H441   1.082       .  S
C439       C1216   1.479       .  S
N442        C446   1.348       .  A
N442        N443   1.322       .  A
N442       Cu450   2.085       .  S
N443        C444   1.345       .  A
N443       Cu449   2.075       .  S
C444        C445   1.385       .  A
C444        H447   1.082       .  S
C445        C446   1.388       .  A
C445       C1209   1.483       .  S
C446        H448   1.081       .  S
Cu449       N452   2.075       .  S
Cu450       N460   2.085       .  S
Cu451       N453   2.091       .  S
Cu451       N459   2.091       .  S
N452        C456   1.345       .  A
N452        N453   1.322       .  A
N453        C454   1.348       .  A
C454        C455   1.389       .  A
C454        H457   1.082       .  S
C455        C456   1.385       .  A
C455       C1869   1.486       .  S
C456        H458   1.082       .  S
N459        C463   1.347       .  A
N459        N460   1.323       .  A
N460        C461   1.347       .  A
C461        C462   1.388       .  A
C461        H464   1.081       .  S
C462        C463   1.391       .  A
C462       C1169   1.494       .  S
C463        H465   1.081       .  S
N466        C470   1.360       .  A
N466        C467   1.360       .  A
N466       C1276   1.441       .  S
C467        C468   1.382       .  A
C467       C1176   1.485   1_655  S
C468        C469   1.374       .  A
C468        H471   1.082       .  S
C469        C470   1.383       .  A
C469        H472   1.082       .  S
C470       C1149   1.486       .  S
N473        C477   1.348       .  A
N473        N474   1.322       .  A
N473       Cu481   2.092       .  S
N474        C475   1.343       .  A
N474       Cu480   2.070       .  S
C475        C476   1.384       .  A
C475        H478   1.082       .  S
C476        C477   1.391       .  A
C476       C1156   1.487       .  S
C477        H479   1.081       .  S
Cu480       N483   2.069       .  S
Cu481       N491   2.092       .  S
Cu482       N484   2.076       .  S
Cu482       N490   2.076       .  S
N483        C487   1.343       .  A
N483        N484   1.318       .  A
N484        C485   1.347       .  A
C485        C486   1.393       .  A
C485        H488   1.080       .  S
C486        C487   1.390       .  A
C486       C1709   1.495       .  S
C487        H489   1.079       .  S
N490        C494   1.342       .  A
N490        N491   1.323       .  A
N491        C492   1.351       .  A
C492        C493   1.390       .  A
C492        H495   1.082       .  S
C493        C494   1.383       .  A
C493       C1196   1.487       .  S
C494        H496   1.081       .  S
N497        C501   1.361       .  A
N497        C498   1.359       .  A
N497       C1889   1.440       .  S
C498        C499   1.380       .  A
C498       C1109   1.479       .  S
C499        C500   1.373       .  A
C499        H502   1.082       .  S
C500        C501   1.384       .  A
C500        H503   1.082       .  S
C501       C1129   1.490       .  S
N504        C508   1.354       .  A
N504        N505   1.323       .  A
N504       Cu512   2.101       .  S
N505        C506   1.340       .  A
N505       Cu511   2.070       .  S
C506        C507   1.382       .  A
C506        H509   1.081       .  S
C507        C508   1.392       .  A
C507       C1136   1.487       .  S
C508        H510   1.082       .  S
Cu511       N514   2.071       .  S
Cu512       N522   2.103       .  S
Cu513       N515   2.084       .  S
Cu513       N521   2.086       .  S
N514        C518   1.344       .  A
N514        N515   1.318       .  A
N515        C516   1.348       .  A
C516        C517   1.394       .  A
C516        H519   1.080       .  S
C517        C518   1.390       .  A
C517       C2076   1.497       .  S
C518        H520   1.080       .  S
N521        C525   1.345       .  A
N521        N522   1.325       .  A
N522        C523   1.350       .  A
C523        C524   1.391       .  A
C523        H526   1.081       .  S
C524        C525   1.386       .  A
C524       C1096   1.494       .  S
C525        H527   1.081       .  S
N528        C532   1.360       .  A
N528        C529   1.360       .  A
N528       C1076   1.440       .  S
C529        C530   1.381       .  A
C529       C1089   1.481       .  S
C530        C531   1.374       .  A
C530        H533   1.082       .  S
C531        C532   1.382       .  A
C531        H534   1.082       .  S
C532       C1049   1.484       .  S
N535        C539   1.348       .  A
N535        N536   1.323       .  A
N535       Cu543   2.092   1_655  S
N536        C537   1.345       .  A
N536       Cu542   2.073       .  S
C537        C538   1.383       .  A
C537        H540   1.082       .  S
C538        C539   1.387       .  A
C538       C1056   1.483       .  S
C539        H541   1.081       .  S
Cu542       N545   2.072       .  S
Cu543       N553   2.092       .  S
Cu544       N546   2.070       .  S
Cu544       N552   2.071       .  S
N545        C549   1.345       .  A
N545        N546   1.321   1_655  A
N546        C547   1.344       .  A
C547        C548   1.386       .  A
C547        H550   1.081       .  S
C548        C549   1.386   1_455  A
C548       C1029   1.482   1_455  S
C549        H551   1.081       .  S
N552        C556   1.343       .  A
N552        N553   1.322       .  A
N553        C554   1.349       .  A
C554        C555   1.390       .  A
C554        H557   1.082       .  S
C555        C556   1.385       .  A
C555       C1116   1.489       .  S
C556        H558   1.081       .  S
N559        C563   1.360       .  A
N559        C560   1.361       .  A
N559       C1796   1.441       .  S
C560        C561   1.382       .  A
C560        C989   1.486       .  S
C561        C562   1.374       .  A
C561        H564   1.082       .  S
C562        C563   1.383       .  A
C562        H565   1.082       .  S
C563       C1016   1.486       .  S
N566        C570   1.349       .  A
N566        N567   1.323       .  A
N566       Cu574   2.100       .  S
N567        C568   1.345       .  A
N567       Cu573   2.085       .  S
C568        C569   1.389       .  A
C568        H571   1.084       .  S
C569        C570   1.394       .  A
C569        C969   1.501       .  S
C570        H572   1.076       .  S
Cu573       N576   2.084       .  S
Cu574       N584   2.099       .  S
Cu575       N577   2.077       .  S
Cu575       N583   2.077       .  S
N576        C580   1.348       .  A
N576        N577   1.321       .  A
N577        C578   1.346       .  A
C578        C579   1.387       .  A
C578        H581   1.082       .  S
C579        C580   1.389       .  A
C579       C1229   1.489       .  S
C580        H582   1.082       .  S
N583        C587   1.344       .  A
N583        N584   1.322       .  A
N584        C585   1.350       .  A
C585        C586   1.394       .  A
C585        H588   1.081       .  S
C586        C587   1.386       .  A
C586       C1009   1.493       .  S
C587        H589   1.082       .  S
N590        C594   1.362       .  A
N590        C591   1.362       .  A
N590        C949   1.442       .  S
C591        C592   1.382       .  A
C591        C976   1.490       .  S
C592        C593   1.373       .  A
C592        H595   1.082       .  S
C593        C594   1.382       .  A
C593        H596   1.082       .  S
C594        C929   1.486       .  S
N597        C601   1.353       .  A
N597        N598   1.322       .  A
N597       Cu605   2.106       .  S
N598        C599   1.342       .  A
N598       Cu604   2.070       .  S
C599        C600   1.384       .  A
C599        H602   1.082       .  S
C600        C601   1.394       .  A
C600        C996   1.493       .  S
C601        H603   1.082       .  S
Cu604       N607   2.070       .  S
Cu605       N615   2.105       .  S
Cu606       N608   2.081       .  S
Cu606       N614   2.082       .  S
N607        C611   1.344       .  A
N607        N608   1.319       .  A
N608        C609   1.347       .  A
C609        C610   1.391       .  A
C609        H612   1.081       .  S
C610        C611   1.389       .  A
C610       C1476   1.492       .  S
C611        H613   1.081       .  S
N614        C618   1.345       .  A
N614        N615   1.323       .  A
N615        C616   1.350       .  A
C616        C617   1.395       .  A
C616        H619   1.080       .  S
C617        C618   1.388       .  A
C617        C936   1.498       .  S
C618        H620   1.081       .  S
N621        C625   1.358       .  A
N621        C622   1.361       .  A
N621        C909   1.441       .  S
C622        C623   1.386       .  A
C622        C869   1.488       .  S
C623        C624   1.374       .  A
C623        H626   1.082       .  S
C624        C625   1.379       .  A
C624        H627   1.082       .  S
C625        C896   1.481       .  S
N628        C632   1.348       .  A
N628        N629   1.322       .  A
N628       Cu636   2.085       .  S
N629        C630   1.344       .  A
N629       Cu635   2.081       .  S
C630        C631   1.386       .  A
C630        H633   1.082       .  S
C631        C632   1.389       .  A
C631        C889   1.486       .  S
C632        H634   1.081       .  S
Cu635       N638   2.082       .  S
Cu636       N646   2.084       .  S
Cu637       N639   2.074       .  S
Cu637       N645   2.074       .  S
N638        C642   1.346       .  A
N638        N639   1.320       .  A
N639        C640   1.346       .  A
C640        C641   1.389       .  A
C640        H643   1.081       .  S
C641        C642   1.390       .  A
C641       C1069   1.492       .  S
C642        H644   1.080       .  S
N645        C649   1.344       .  A
N645        N646   1.322       .  A
N646        C647   1.347       .  A
C647        C648   1.389       .  A
C647        H650   1.081       .  S
C648        C649   1.386       .  A
C648        C856   1.488       .  S
C649        H651   1.081       .  S
N652        C656   1.356       .  A
N652        C653   1.359       .  A
N652       C1729   1.441       .  S
C653        C654   1.383       .  A
C653        C849   1.483       .  S
C654        C655   1.375       .  A
C654        H657   1.082       .  S
C655        C656   1.381       .  A
C655        H658   1.082       .  S
C656        C829   1.478       .  S
N659        C663   1.352       .  A
N659        N660   1.325       .  A
N659       Cu667   2.105       .  S
N660        C661   1.342       .  A
N660       Cu666   2.077       .  S
C661        C662   1.382       .  A
C661        H664   1.082       .  S
C662        C663   1.391       .  A
C662        C876   1.488       .  S
C663        H665   1.082       .  S
Cu666       N669   2.075       .  S
Cu667       N677   2.104       .  S
Cu668       N670   2.056       .  S
Cu668       N676   2.057       .  S
N669        C673   1.347       .  A
N669        N670   1.319       .  A
N670        C671   1.340       .  A
C671        C672   1.383       .  A
C671        H674   1.081       .  S
C672        C673   1.389       .  A
C672       C1576   1.481       .  S
C673        H675   1.082       .  S
N676        C680   1.343       .  A
N676        N677   1.322       .  A
N677        C678   1.350       .  A
C678        C679   1.393       .  A
C678        H681   1.081       .  S
C679        C680   1.381       .  A
C679        C836   1.487       .  S
C680        H682   1.082       .  S
N683        C687   1.360       .  A
N683        C684   1.359       .  A
N683       C1389   1.444       .  S
C684        C685   1.380       .  A
C684        C789   1.475       .  S
C685        C686   1.370       .  A
C685        H688   1.082       .  S
C686        C687   1.383       .  A
C686        H689   1.082       .  S
C687        C809   1.483       .  S
N690        C694   1.346       .  A
N690        N691   1.324       .  A
N690       Cu698   2.071       .  S
N691        C692   1.344       .  A
N691       Cu697   2.082       .  S
C692        C693   1.383       .  A
C692        H695   1.082       .  S
C693        C694   1.381       .  A
C693        C769   1.474       .  S
C694        H696   1.082       .  S
Cu697       N700   2.082       .  S
Cu698       N708   2.071       .  S
Cu699       N701   2.066       .  S
Cu699       N707   2.066       .  S
N700        C704   1.348       .  A
N700        N701   1.320       .  A
N701        C702   1.342       .  A
C702        C703   1.385       .  A
C702        H705   1.081       .  S
C703        C704   1.391       .  A
C703        C956   1.488       .  S
C704        H706   1.081       .  S
N707        C711   1.341       .  A
N707        N708   1.321       .  A
N708        C709   1.347       .  A
C709        C710   1.386       .  A
C709        H712   1.082       .  S
C710        C711   1.383       .  A
C710        C816   1.478       .  S
C711        H713   1.081       .  S
N714        C718   1.359       .  A
N714        C715   1.359   1_556  A
N714       C1036   1.441       .  S
C715        C716   1.382   1_554  A
C715        C776   1.483       .  S
C716        C717   1.373       .  A
C716        H719   1.082       .  S
C717        C718   1.383       .  A
C717        H720   1.082       .  S
C718        C756   1.482       .  S
N721        C725   1.347       .  A
N721        N722   1.322       .  A
N721       Cu729   2.087       .  S
N722        C723   1.346       .  A
N722       Cu728   2.076       .  S
C723        C724   1.386       .  A
C723        H726   1.081       .  S
C724        C725   1.389       .  A
C724        C749   1.488       .  S
C725        H727   1.081       .  S
Cu728       N731   2.076       .  S
Cu729       N739   2.087       .  S
Cu730       N732   2.075       .  S
Cu730       N738   2.075       .  S
N731        C735   1.345       .  A
N731        N732   1.321       .  A
N732        C733   1.344       .  A
C733        C734   1.389       .  A
C733        H736   1.080       .  S
C734        C735   1.388       .  A
C734        C916   1.490       .  S
C735        H737   1.081       .  S
N738        C742   1.345       .  A
N738        N739   1.322       .  A
N739        C740   1.347       .  A
C740        C741   1.390       .  A
C740        H743   1.081       .  S
C741        C742   1.388       .  A
C741        C796   1.491       .  S
C742        H744   1.081       .  S
C745        C746   1.404       .  A
C745        C750   1.404       .  A
C745        F763   1.358       .  S
C746        C747   1.406       .  A
C746        C751   1.485       .  S
C747        C748   1.399       .  A
C747        F752   1.358       .  S
C748        C749   1.408       .  A
C748        F764   1.357       .  S
C749        C750   1.411       .  A
C750        F753   1.357       .  S
C751        C754   1.403       .  A
C751        C758   1.408       .  A
C754        C755   1.394       .  A
C754        F759   1.358       .  S
C755        C756   1.405       .  A
C755        F761   1.358       .  S
C756        C757   1.406       .  A
C757        C758   1.407       .  A
C757        F760   1.357   1_655  S
C758        F762   1.355       .  S
C765        C766   1.404       .  A
C765        C770   1.402       .  A
C765        F783   1.357       .  S
C766        C767   1.405       .  A
C766        C771   1.478       .  S
C767        C768   1.397       .  A
C767        F772   1.358       .  S
C768        C769   1.404       .  A
C768        F784   1.357       .  S
C769        C770   1.407       .  A
C770        F773   1.358       .  S
C771        C774   1.402       .  A
C771        C778   1.405       .  A
C774        C775   1.399   1_655  A
C774        F779   1.358   1_655  S
C775        C776   1.407   1_455  A
C775        F781   1.358       .  S
C776        C777   1.408       .  A
C777        C778   1.401       .  A
C777        F780   1.357       .  S
C778        F782   1.358       .  S
C785        C786   1.406       .  A
C785        C790   1.398       .  A
C785        F803   1.358       .  S
C786        C787   1.408       .  A
C786        C791   1.488       .  S
C787        C788   1.402       .  A
C787        F792   1.358       .  S
C788        C789   1.404       .  A
C788        F804   1.358   1_655  S
C789        C790   1.406       .  A
C790        F793   1.358       .  S
C791        C794   1.405       .  A
C791        C798   1.407       .  A
C794        C795   1.402       .  A
C794        F799   1.358       .  S
C795        C796   1.411       .  A
C795        F801   1.357       .  S
C796        C797   1.410       .  A
C797        C798   1.399       .  A
C797        F800   1.357       .  S
C798        F802   1.358       .  S
C805        C806   1.408       .  A
C805        C810   1.396       .  A
C805        F823   1.358       .  S
C806        C807   1.408       .  A
C806        C811   1.488       .  S
C807        C808   1.399       .  A
C807        F812   1.357   1_655  S
C808        C809   1.407       .  A
C808        F824   1.358   1_655  S
C809        C810   1.406       .  A
C810        F813   1.355       .  S
C811        C814   1.409       .  A
C811        C818   1.408       .  A
C814        C815   1.394       .  A
C814        F819   1.358       .  S
C815        C816   1.404       .  A
C815        F821   1.358       .  S
C816        C817   1.407       .  A
C817        C818   1.402       .  A
C817        F820   1.357       .  S
C818        F822   1.357   1_655  S
C825        C826   1.404       .  A
C825        C830   1.395       .  A
C825        F843   1.358       .  S
C826        C827   1.407       .  A
C826        C831   1.482   1_565  S
C827        C828   1.406       .  A
C827        F832   1.356       .  S
C828        C829   1.405       .  A
C828        F844   1.357       .  S
C829        C830   1.404       .  A
C830        F833   1.358       .  S
C831        C834   1.405       .  A
C831        C838   1.404       .  A
C834        C835   1.398       .  A
C834        F839   1.358       .  S
C835        C836   1.406       .  A
C835        F841   1.357       .  S
C836        C837   1.412       .  A
C837        C838   1.404       .  A
C837        F840   1.358       .  S
C838        F842   1.358       .  S
C845        C846   1.406       .  A
C845        C850   1.400       .  A
C845        F863   1.358       .  S
C846        C847   1.406       .  A
C846        C851   1.485       .  S
C847        C848   1.402       .  A
C847        F852   1.358       .  S
C848        C849   1.407       .  A
C848        F864   1.358       .  S
C849        C850   1.406       .  A
C850        F853   1.357       .  S
C851        C854   1.404       .  A
C851        C858   1.405       .  A
C854        C855   1.402       .  A
C854        F859   1.357       .  S
C855        C856   1.410       .  A
C855        F861   1.357       .  S
C856        C857   1.410       .  A
C857        C858   1.400       .  A
C857        F860   1.357       .  S
C858        F862   1.358       .  S
C865        C866   1.408       .  A
C865        C870   1.407       .  A
C865        F883   1.357       .  S
C866        C867   1.404       .  A
C866        C871   1.488       .  S
C867        C868   1.398       .  A
C867        F872   1.358       .  S
C868        C869   1.409       .  A
C868        F884   1.358       .  S
C869        C870   1.407       .  A
C870        F873   1.357       .  S
C871        C874   1.404       .  A
C871        C878   1.408       .  A
C874        C875   1.400       .  A
C874        F879   1.358       .  S
C875        C876   1.410       .  A
C875        F881   1.358       .  S
C876        C877   1.408       .  A
C877        C878   1.405       .  A
C877        F880   1.358       .  S
C878        F882   1.358       .  S
C885        C886   1.406       .  A
C885        C890   1.400       .  A
C885        F903   1.358       .  S
C886        C887   1.409       .  A
C886        C891   1.491       .  S
C887        C888   1.402       .  A
C887        F892   1.358       .  S
C888        C889   1.409       .  A
C888        F904   1.357       .  S
C889        C890   1.407       .  A
C890        F893   1.357       .  S
C891        C894   1.410       .  A
C891        C898   1.408       .  A
C894        C895   1.399       .  A
C894        F899   1.358       .  S
C895        C896   1.403       .  A
C895        F901   1.358       .  S
C896        C897   1.404       .  A
C897        C898   1.403       .  A
C897        F900   1.356       .  S
C898        F902   1.357       .  S
C905        C906   1.409       .  A
C905        C910   1.405       .  A
C905        F923   1.358       .  S
C906        C907   1.403       .  A
C906        C911   1.483       .  S
C907        C908   1.395       .  A
C907        F912   1.358       .  S
C908        C909   1.405       .  A
C908        F924   1.357       .  S
C909        C910   1.405       .  A
C910        F913   1.357       .  S
C911        C914   1.403       .  A
C911        C918   1.404       .  A
C914        C915   1.397       .  A
C914        F919   1.358       .  S
C915        C916   1.411       .  A
C915        F921   1.356       .  S
C916        C917   1.411       .  A
C917        C918   1.402       .  A
C917        F920   1.357       .  S
C918        F922   1.358       .  S
C925        C926   1.402       .  A
C925        C930   1.395       .  A
C925        F943   1.358       .  S
C926        C927   1.408       .  A
C926        C931   1.483       .  S
C927        C928   1.409       .  A
C927        F932   1.357       .  S
C928        C929   1.409       .  A
C928        F944   1.357       .  S
C929        C930   1.407       .  A
C930        F933   1.358       .  S
C931        C934   1.403       .  A
C931        C938   1.402       .  A
C934        C935   1.402   1_545  A
C934        F939   1.358       .  S
C935        C936   1.412       .  A
C935        F941   1.356       .  S
C936        C937   1.414   1_565  A
C937        C938   1.403       .  A
C937        F940   1.357       .  S
C938        F942   1.358       .  S
C945        C946   1.408       .  A
C945        C950   1.402       .  A
C945        F963   1.358       .  S
C946        C947   1.405       .  A
C946        C951   1.486       .  S
C947        C948   1.397       .  A
C947        F952   1.358       .  S
C948        C949   1.405       .  A
C948        F964   1.357       .  S
C949        C950   1.406       .  A
C950        F953   1.357       .  S
C951        C954   1.406       .  A
C951        C958   1.404       .  A
C954        C955   1.401       .  A
C954        F959   1.357       .  S
C955        C956   1.408       .  A
C955        F961   1.355       .  S
C956        C957   1.411       .  A
C957        C958   1.399       .  A
C957        F960   1.357       .  S
C958        F962   1.358       .  S
C965        C966   1.404       .  A
C965        C970   1.405       .  A
C965        F983   1.358       .  S
C966        C967   1.403       .  A
C966        C971   1.488       .  S
C967        C968   1.402       .  A
C967        F972   1.358       .  S
C968        C969   1.414       .  A
C968        F984   1.356       .  S
C969        C970   1.414       .  A
C970        F973   1.356       .  S
C971        C974   1.408       .  A
C971        C978   1.403       .  A
C974        C975   1.407       .  A
C974        F979   1.358       .  S
C975        C976   1.409       .  A
C975        F981   1.357       .  S
C976        C977   1.408       .  A
C977        C978   1.399       .  A
C977        F980   1.358       .  S
C978        F982   1.358       .  S
C985        C986   1.408       .  A
C985        C990   1.404       .  A
C985       F1003   1.358       .  S
C986        C987   1.405       .  A
C986        C991   1.490       .  S
C987        C988   1.403       .  A
C987        F992   1.358       .  S
C988        C989   1.408       .  A
C988       F1004   1.358       .  S
C989        C990   1.406       .  A
C990        F993   1.357       .  S
C991        C994   1.404       .  A
C991        C998   1.407       .  A
C994        C995   1.399       .  A
C994        F999   1.358       .  S
C995        C996   1.410       .  A
C995       F1001   1.357       .  S
C996        C997   1.410       .  A
C997        C998   1.408       .  A
C997       F1000   1.357       .  S
C998       F1002   1.357       .  S
C1005      C1006   1.404       .  A
C1005      C1010   1.404       .  A
C1005      F1023   1.358       .  S
C1006      C1007   1.407       .  A
C1006      C1011   1.488       .  S
C1007      C1008   1.401       .  A
C1007      F1012   1.358       .  S
C1008      C1009   1.409       .  A
C1008      F1024   1.357       .  S
C1009      C1010   1.412       .  A
C1010      F1013   1.357       .  S
C1011      C1014   1.404       .  A
C1011      C1018   1.409       .  A
C1014      C1015   1.395       .  A
C1014      F1019   1.358       .  S
C1015      C1016   1.406       .  A
C1015      F1021   1.358       .  S
C1016      C1017   1.408       .  A
C1017      C1018   1.408       .  A
C1017      F1020   1.357       .  S
C1018      F1022   1.356       .  S
C1025      C1026   1.409   1_455  A
C1025      C1030   1.398       .  A
C1025      F1043   1.358   1_554  S
C1026      C1027   1.409       .  A
C1026      C1031   1.491       .  S
C1027      C1028   1.401       .  A
C1027      F1032   1.358       .  S
C1028      C1029   1.407       .  A
C1028      F1044   1.357       .  S
C1029      C1030   1.404   1_655  A
C1030      F1033   1.355       .  S
C1031      C1034   1.408   1_655  A
C1031      C1038   1.411   1_554  A
C1034      C1035   1.396       .  A
C1034      F1039   1.358       .  S
C1035      C1036   1.404   1_454  A
C1035      F1041   1.357       .  S
C1036      C1037   1.404       .  A
C1037      C1038   1.402       .  A
C1037      F1040   1.357       .  S
C1038      F1042   1.358       .  S
C1045      C1046   1.408       .  A
C1045      C1050   1.403       .  A
C1045      F1063   1.358       .  S
C1046      C1047   1.410       .  A
C1046      C1051   1.493       .  S
C1047      C1048   1.401       .  A
C1047      F1052   1.358       .  S
C1048      C1049   1.404       .  A
C1048      F1064   1.357       .  S
C1049      C1050   1.407       .  A
C1050      F1053   1.357       .  S
C1051      C1054   1.410       .  A
C1051      C1058   1.407       .  A
C1054      C1055   1.402       .  A
C1054      F1059   1.358       .  S
C1055      C1056   1.406       .  A
C1055      F1061   1.358       .  S
C1056      C1057   1.407       .  A
C1057      C1058   1.401       .  A
C1057      F1060   1.358   1_554  S
C1058      F1062   1.358       .  S
C1065      C1066   1.404       .  A
C1065      C1070   1.400       .  A
C1065      F1083   1.358       .  S
C1066      C1067   1.405       .  A
C1066      C1071   1.486       .  S
C1067      C1068   1.402       .  A
C1067      F1072   1.358       .  S
C1068      C1069   1.412       .  A
C1068      F1084   1.357       .  S
C1069      C1070   1.410       .  A
C1070      F1073   1.356       .  S
C1071      C1074   1.406   1_556  A
C1071      C1078   1.408       .  A
C1074      C1075   1.401       .  A
C1074      F1079   1.358   1_554  S
C1075      C1076   1.406       .  A
C1075      F1081   1.357       .  S
C1076      C1077   1.402       .  A
C1077      C1078   1.402   1_554  A
C1077      F1080   1.355       .  S
C1078      F1082   1.358       .  S
C1085      C1086   1.409       .  A
C1085      C1090   1.405       .  A
C1085      F1103   1.357       .  S
C1086      C1087   1.409       .  A
C1086      C1091   1.495       .  S
C1087      C1088   1.402       .  A
C1087      F1092   1.358       .  S
C1088      C1089   1.405       .  A
C1088      F1104   1.358       .  S
C1089      C1090   1.405       .  A
C1090      F1093   1.358       .  S
C1091      C1094   1.407       .  A
C1091      C1098   1.408       .  A
C1094      C1095   1.406       .  A
C1094      F1099   1.357       .  S
C1095      C1096   1.410       .  A
C1095      F1101   1.357       .  S
C1096      C1097   1.410       .  A
C1097      C1098   1.401       .  A
C1097      F1100   1.358       .  S
C1098      F1102   1.358       .  S
C1105      C1106   1.407       .  A
C1105      C1110   1.403       .  A
C1105      F1123   1.358       .  S
C1106      C1107   1.407       .  A
C1106      C1111   1.489       .  S
C1107      C1108   1.400       .  A
C1107      F1112   1.358       .  S
C1108      C1109   1.405       .  A
C1108      F1124   1.357       .  S
C1109      C1110   1.405       .  A
C1110      F1113   1.358       .  S
C1111      C1114   1.406       .  A
C1111      C1118   1.406       .  A
C1114      C1115   1.399       .  A
C1114      F1119   1.358       .  S
C1115      C1116   1.408       .  A
C1115      F1121   1.358       .  S
C1116      C1117   1.410       .  A
C1117      C1118   1.404       .  A
C1117      F1120   1.357       .  S
C1118      F1122   1.357       .  S
C1125      C1126   1.408       .  A
C1125      C1130   1.400       .  A
C1125      F1143   1.358       .  S
C1126      C1127   1.406       .  A
C1126      C1131   1.491       .  S
C1127      C1128   1.402       .  A
C1127      F1132   1.357       .  S
C1128      C1129   1.410       .  A
C1128      F1144   1.358       .  S
C1129      C1130   1.407       .  A
C1130      F1133   1.355       .  S
C1131      C1134   1.406       .  A
C1131      C1138   1.410       .  A
C1134      C1135   1.393       .  A
C1134      F1139   1.359       .  S
C1135      C1136   1.407       .  A
C1135      F1141   1.358       .  S
C1136      C1137   1.409       .  A
C1137      C1138   1.409       .  A
C1137      F1140   1.358       .  S
C1138      F1142   1.357       .  S
C1145      C1146   1.403       .  A
C1145      C1150   1.394       .  A
C1145      F1163   1.358       .  S
C1146      C1147   1.407       .  A
C1146      C1151   1.482       .  S
C1147      C1148   1.407       .  A
C1147      F1152   1.357       .  S
C1148      C1149   1.409       .  A
C1148      F1164   1.357       .  S
C1149      C1150   1.406       .  A
C1150      F1153   1.358       .  S
C1151      C1154   1.404       .  A
C1151      C1158   1.403       .  A
C1154      C1155   1.398       .  A
C1154      F1159   1.358       .  S
C1155      C1156   1.408       .  A
C1155      F1161   1.357       .  S
C1156      C1157   1.411       .  A
C1157      C1158   1.403       .  A
C1157      F1160   1.358       .  S
C1158      F1162   1.358       .  S
C1165      C1166   1.405       .  A
C1165      C1170   1.402       .  A
C1165      F1183   1.358       .  S
C1166      C1167   1.404       .  A
C1166      C1171   1.486       .  S
C1167      C1168   1.404       .  A
C1167      F1172   1.358       .  S
C1168      C1169   1.412       .  A
C1168      F1184   1.357       .  S
C1169      C1170   1.411       .  A
C1170      F1173   1.357       .  S
C1171      C1174   1.405       .  A
C1171      C1178   1.406       .  A
C1174      C1175   1.402       .  A
C1174      F1179   1.358       .  S
C1175      C1176   1.408       .  A
C1175      F1181   1.358       .  S
C1176      C1177   1.406       .  A
C1177      C1178   1.403       .  A
C1177      F1180   1.357       .  S
C1178      F1182   1.358       .  S
C1185      C1186   1.405       .  A
C1185      C1190   1.399       .  A
C1185      F1203   1.357       .  S
C1186      C1187   1.409       .  A
C1186      C1191   1.486       .  S
C1187      C1188   1.402       .  A
C1187      F1192   1.358       .  S
C1188      C1189   1.404       .  A
C1188      F1204   1.358       .  S
C1189      C1190   1.405       .  A
C1190      F1193   1.358       .  S
C1191      C1194   1.407       .  A
C1191      C1198   1.404       .  A
C1194      C1195   1.406       .  A
C1194      F1199   1.358       .  S
C1195      C1196   1.410       .  A
C1195      F1201   1.357       .  S
C1196      C1197   1.408       .  A
C1197      C1198   1.396       .  A
C1197      F1200   1.357       .  S
C1198      F1202   1.358       .  S
C1205      C1206   1.403       .  A
C1205      C1210   1.402       .  A
C1205      F1223   1.357       .  S
C1206      C1207   1.406       .  A
C1206      C1211   1.482       .  S
C1207      C1208   1.400       .  A
C1207      F1212   1.358       .  S
C1208      C1209   1.407       .  A
C1208      F1224   1.358       .  S
C1209      C1210   1.409       .  A
C1210      F1213   1.358       .  S
C1211      C1214   1.403       .  A
C1211      C1218   1.408       .  A
C1214      C1215   1.394       .  A
C1214      F1219   1.358       .  S
C1215      C1216   1.405       .  A
C1215      F1221   1.358       .  S
C1216      C1217   1.406       .  A
C1217      C1218   1.407       .  A
C1217      F1220   1.357       .  S
C1218      F1222   1.357       .  S
C1225      C1226   1.407       .  A
C1225      C1230   1.403       .  A
C1225      F1243   1.358       .  S
C1226      C1227   1.408       .  A
C1226      C1231   1.491       .  S
C1227      C1228   1.401       .  A
C1227      F1232   1.358       .  S
C1228      C1229   1.407       .  A
C1228      F1244   1.356       .  S
C1229      C1230   1.410       .  A
C1230      F1233   1.358       .  S
C1231      C1234   1.409       .  A
C1231      C1238   1.407       .  A
C1234      C1235   1.404       .  A
C1234      F1239   1.358       .  S
C1235      C1236   1.406       .  A
C1235      F1241   1.357       .  S
C1236      C1237   1.406       .  A
C1237      C1238   1.399       .  A
C1237      F1240   1.357       .  S
C1238      F1242   1.358       .  S
C1245      C1246   1.408       .  A
C1245      C1250   1.400   1_545  A
C1245      F1263   1.358       .  S
C1246      C1247   1.406       .  A
C1246      C1251   1.486       .  S
C1247      C1248   1.402       .  A
C1247      F1252   1.358       .  S
C1248      C1249   1.405   1_545  A
C1248      F1264   1.357   1_545  S
C1249      C1250   1.404       .  A
C1250      F1253   1.358       .  S
C1251      C1254   1.406   1_556  A
C1251      C1258   1.407       .  A
C1254      C1255   1.400       .  A
C1254      F1259   1.357       .  S
C1255      C1256   1.406   1_554  A
C1255      F1261   1.357       .  S
C1256      C1257   1.406       .  A
C1257      C1258   1.400       .  A
C1257      F1260   1.357       .  S
C1258      F1262   1.358       .  S
C1265      C1266   1.406   1_455  A
C1265      C1270   1.399       .  A
C1265      F1283   1.358       .  S
C1266      C1267   1.409       .  A
C1266      C1271   1.489       .  S
C1267      C1268   1.402       .  A
C1267      F1272   1.358       .  S
C1268      C1269   1.406       .  A
C1268      F1284   1.357       .  S
C1269      C1270   1.407   1_655  A
C1270      F1273   1.357       .  S
C1271      C1274   1.407   1_655  A
C1271      C1278   1.409       .  A
C1274      C1275   1.399   1_455  A
C1274      F1279   1.358       .  S
C1275      C1276   1.405       .  A
C1275      F1281   1.357   1_655  S
C1276      C1277   1.405       .  A
C1277      C1278   1.402       .  A
C1277      F1280   1.357       .  S
C1278      F1282   1.358       .  S
C1285      C1286   1.407       .  A
C1285      C1290   1.403       .  A
C1285      F1303   1.358       .  S
C1286      C1287   1.405       .  A
C1286      C1291   1.485       .  S
C1287      C1288   1.399       .  A
C1287      F1292   1.358       .  S
C1288      C1289   1.407       .  A
C1288      F1304   1.358       .  S
C1289      C1290   1.408       .  A
C1290      F1293   1.358       .  S
C1291      C1294   1.404       .  A
C1291      C1298   1.409       .  A
C1294      C1295   1.395       .  A
C1294      F1299   1.358       .  S
C1295      C1296   1.406       .  A
C1295      F1301   1.358       .  S
C1296      C1297   1.405       .  A
C1297      C1298   1.407       .  A
C1297      F1300   1.357   1_556  S
C1298      F1302   1.357       .  S
C1305      C1306   1.404       .  A
C1305      C1310   1.402       .  A
C1305      F1323   1.357       .  S
C1306      C1307   1.405       .  A
C1306      C1311   1.487       .  S
C1307      C1308   1.401       .  A
C1307      F1312   1.358       .  S
C1308      C1309   1.411       .  A
C1308      F1324   1.357       .  S
C1309      C1310   1.411       .  A
C1310      F1313   1.357       .  S
C1311      C1314   1.407       .  A
C1311      C1318   1.405       .  A
C1314      C1315   1.403       .  A
C1314      F1319   1.358       .  S
C1315      C1316   1.407       .  A
C1315      F1321   1.357       .  S
C1316      C1317   1.407       .  A
C1317      C1318   1.401       .  A
C1317      F1320   1.358   1_556  S
C1318      F1322   1.358   1_556  S
C1325      C1326   1.404       .  A
C1325      C1330   1.395       .  A
C1325      F1343   1.358       .  S
C1326      C1327   1.408       .  A
C1326      C1331   1.485       .  S
C1327      C1328   1.407       .  A
C1327      F1332   1.357   1_556  S
C1328      C1329   1.408       .  A
C1328      F1344   1.357   1_556  S
C1329      C1330   1.408       .  A
C1330      F1333   1.358       .  S
C1331      C1334   1.404       .  A
C1331      C1338   1.403       .  A
C1334      C1335   1.400       .  A
C1334      F1339   1.358       .  S
C1335      C1336   1.412       .  A
C1335      F1341   1.356       .  S
C1336      C1337   1.413       .  A
C1337      C1338   1.403       .  A
C1337      F1340   1.357       .  S
C1338      F1342   1.358       .  S
C1345      C1346   1.403       .  A
C1345      C1350   1.393       .  A
C1345      F1363   1.358       .  S
C1346      C1347   1.408       .  A
C1346      C1351   1.483       .  S
C1347      C1348   1.407       .  A
C1347      F1352   1.357       .  S
C1348      C1349   1.406       .  A
C1348      F1364   1.356       .  S
C1349      C1350   1.407       .  A
C1350      F1353   1.358       .  S
C1351      C1354   1.403       .  A
C1351      C1358   1.405       .  A
C1354      C1355   1.397       .  A
C1354      F1359   1.358       .  S
C1355      C1356   1.413       .  A
C1355      F1361   1.357       .  S
C1356      C1357   1.411       .  A
C1357      C1358   1.404       .  A
C1357      F1360   1.357       .  S
C1358      F1362   1.357       .  S
C1365      C1366   1.408       .  A
C1365      C1370   1.405       .  A
C1365      F1383   1.357       .  S
C1366      C1367   1.405       .  A
C1366      C1371   1.488       .  S
C1367      C1368   1.397       .  A
C1367      F1372   1.358       .  S
C1368      C1369   1.407       .  A
C1368      F1384   1.357       .  S
C1369      C1370   1.407       .  A
C1370      F1373   1.356       .  S
C1371      C1374   1.406       .  A
C1371      C1378   1.406       .  A
C1374      C1375   1.404       .  A
C1374      F1379   1.358       .  S
C1375      C1376   1.409       .  A
C1375      F1381   1.357       .  S
C1376      C1377   1.409       .  A
C1377      C1378   1.399       .  A
C1377      F1380   1.356       .  S
C1378      F1382   1.358       .  S
C1385      C1386   1.404       .  A
C1385      C1390   1.400       .  A
C1385      F1403   1.358       .  S
C1386      C1387   1.403   1_655  A
C1386      C1391   1.479       .  S
C1387      C1388   1.400       .  A
C1387      F1392   1.358       .  S
C1388      C1389   1.408   1_455  A
C1388      F1404   1.356       .  S
C1389      C1390   1.406       .  A
C1390      F1393   1.353       .  S
C1391      C1394   1.403       .  A
C1391      C1398   1.402   1_655  A
C1394      C1395   1.399       .  A
C1394      F1399   1.358       .  S
C1395      C1396   1.410   1_655  A
C1395      F1401   1.357       .  S
C1396      C1397   1.412       .  A
C1397      C1398   1.400       .  A
C1397      F1400   1.357       .  S
C1398      F1402   1.358       .  S
C1405      C1406   1.403       .  A
C1405      C1410   1.400       .  A
C1405      F1423   1.358       .  S
C1406      C1407   1.406       .  A
C1406      C1411   1.482       .  S
C1407      C1408   1.402       .  A
C1407      F1412   1.358       .  S
C1408      C1409   1.408       .  A
C1408      F1424   1.357       .  S
C1409      C1410   1.408       .  A
C1410      F1413   1.358       .  S
C1411      C1414   1.404       .  A
C1411      C1418   1.403       .  A
C1414      C1415   1.405       .  A
C1414      F1419   1.358       .  S
C1415      C1416   1.411       .  A
C1415      F1421   1.357       .  S
C1416      C1417   1.410       .  A
C1417      C1418   1.398       .  A
C1417      F1420   1.357       .  S
C1418      F1422   1.358       .  S
C1425      C1426   1.409       .  A
C1425      C1430   1.403       .  A
C1425      F1443   1.358       .  S
C1426      C1427   1.407       .  A
C1426      C1431   1.489       .  S
C1427      C1428   1.401       .  A
C1427      F1432   1.358       .  S
C1428      C1429   1.406       .  A
C1428      F1444   1.358       .  S
C1429      C1430   1.405       .  A
C1430      F1433   1.358       .  S
C1431      C1434   1.410       .  A
C1431      C1438   1.406       .  A
C1434      C1435   1.406       .  A
C1434      F1439   1.358       .  S
C1435      C1436   1.404       .  A
C1435      F1441   1.357       .  S
C1436      C1437   1.404       .  A
C1437      C1438   1.398       .  A
C1437      F1440   1.358       .  S
C1438      F1442   1.358       .  S
C1445      C1446   1.406       .  A
C1445      C1450   1.399       .  A
C1445      F1463   1.358       .  S
C1446      C1447   1.407       .  A
C1446      C1451   1.487       .  S
C1447      C1448   1.402       .  A
C1447      F1452   1.358       .  S
C1448      C1449   1.406       .  A
C1448      F1464   1.358       .  S
C1449      C1450   1.407       .  A
C1450      F1453   1.356       .  S
C1451      C1454   1.407       .  A
C1451      C1458   1.407       .  A
C1454      C1455   1.398       .  A
C1454      F1459   1.358       .  S
C1455      C1456   1.405       .  A
C1455      F1461   1.358       .  S
C1456      C1457   1.407       .  A
C1457      C1458   1.403       .  A
C1457      F1460   1.358       .  S
C1458      F1462   1.357       .  S
C1465      C1466   1.409       .  A
C1465      C1470   1.401       .  A
C1465      F1483   1.358       .  S
C1466      C1467   1.407       .  A
C1466      C1471   1.487       .  S
C1467      C1468   1.399       .  A
C1467      F1472   1.357       .  S
C1468      C1469   1.404       .  A
C1468      F1484   1.357       .  S
C1469      C1470   1.402       .  A
C1470      F1473   1.357       .  S
C1471      C1474   1.405       .  A
C1471      C1478   1.404       .  A
C1474      C1475   1.401       .  A
C1474      F1479   1.358       .  S
C1475      C1476   1.411       .  A
C1475      F1481   1.356       .  S
C1476      C1477   1.411       .  A
C1477      C1478   1.400       .  A
C1477      F1480   1.357       .  S
C1478      F1482   1.358       .  S
C1485      C1486   1.408       .  A
C1485      C1490   1.408       .  A
C1485      F1503   1.355       .  S
C1486      C1487   1.404       .  A
C1486      C1491   1.487       .  S
C1487      C1488   1.393       .  A
C1487      F1492   1.359       .  S
C1488      C1489   1.407       .  A
C1488      F1504   1.358       .  S
C1489      C1490   1.408       .  A
C1490      F1493   1.357       .  S
C1491      C1494   1.406       .  A
C1491      C1498   1.404       .  A
C1494      C1495   1.399       .  A
C1494      F1499   1.358       .  S
C1495      C1496   1.410       .  A
C1495      F1501   1.357       .  S
C1496      C1497   1.411       .  A
C1497      C1498   1.402       .  A
C1497      F1500   1.357       .  S
C1498      F1502   1.357       .  S
C1505      C1506   1.409       .  A
C1505      C1510   1.404       .  A
C1505      F1523   1.358       .  S
C1506      C1507   1.405       .  A
C1506      C1511   1.489       .  S
C1507      C1508   1.400       .  A
C1507      F1512   1.358       .  S
C1508      C1509   1.408       .  A
C1508      F1524   1.358       .  S
C1509      C1510   1.407       .  A
C1510      F1513   1.357   1_455  S
C1511      C1514   1.406       .  A
C1511      C1518   1.407       .  A
C1514      C1515   1.399       .  A
C1514      F1519   1.358       .  S
C1515      C1516   1.409       .  A
C1515      F1521   1.357       .  S
C1516      C1517   1.410       .  A
C1517      C1518   1.405       .  A
C1517      F1520   1.357       .  S
C1518      F1522   1.358       .  S
C1525      C1526   1.405       .  A
C1525      C1530   1.396       .  A
C1525      F1543   1.358       .  S
C1526      C1527   1.408       .  A
C1526      C1531   1.485       .  S
C1527      C1528   1.406       .  A
C1527      F1532   1.357       .  S
C1528      C1529   1.406       .  A
C1528      F1544   1.357       .  S
C1529      C1530   1.403       .  A
C1530      F1533   1.358       .  S
C1531      C1534   1.406       .  A
C1531      C1538   1.406       .  A
C1534      C1535   1.405       .  A
C1534      F1539   1.357       .  S
C1535      C1536   1.407       .  A
C1535      F1541   1.357       .  S
C1536      C1537   1.405       .  A
C1537      C1538   1.397       .  A
C1537      F1540   1.358       .  S
C1538      F1542   1.358       .  S
C1545      C1546   1.406       .  A
C1545      C1550   1.396       .  A
C1545      F1563   1.358       .  S
C1546      C1547   1.409       .  A
C1546      C1551   1.493       .  S
C1547      C1548   1.407       .  A
C1547      F1552   1.356       .  S
C1548      C1549   1.409       .  A
C1548      F1564   1.357       .  S
C1549      C1550   1.409       .  A
C1550      F1553   1.357       .  S
C1551      C1554   1.409       .  A
C1551      C1558   1.407       .  A
C1554      C1555   1.401       .  A
C1554      F1559   1.358       .  S
C1555      C1556   1.407       .  A
C1555      F1561   1.355       .  S
C1556      C1557   1.409       .  A
C1557      C1558   1.401       .  A
C1557      F1560   1.358       .  S
C1558      F1562   1.358       .  S
C1565      C1566   1.405       .  A
C1565      C1570   1.398       .  A
C1565      F1583   1.358   1_554  S
C1566      C1567   1.405       .  A
C1566      C1571   1.476   1_554  S
C1567      C1568   1.400       .  A
C1567      F1572   1.358       .  S
C1568      C1569   1.403       .  A
C1568      F1584   1.357       .  S
C1569      C1570   1.404       .  A
C1570      F1573   1.357       .  S
C1571      C1574   1.402       .  A
C1571      C1578   1.404       .  A
C1574      C1575   1.396       .  A
C1574      F1579   1.358       .  S
C1575      C1576   1.409       .  A
C1575      F1581   1.357       .  S
C1576      C1577   1.408       .  A
C1577      C1578   1.401       .  A
C1577      F1580   1.357       .  S
C1578      F1582   1.358       .  S
C1585      C1586   1.409       .  A
C1585      C1590   1.402       .  A
C1585      F1603   1.358       .  S
C1586      C1587   1.411       .  A
C1586      C1591   1.493       .  S
C1587      C1588   1.401       .  A
C1587      F1592   1.358       .  S
C1588      C1589   1.403       .  A
C1588      F1604   1.358       .  S
C1589      C1590   1.404       .  A
C1590      F1593   1.357       .  S
C1591      C1594   1.410       .  A
C1591      C1598   1.406       .  A
C1594      C1595   1.402       .  A
C1594      F1599   1.358       .  S
C1595      C1596   1.407       .  A
C1595      F1601   1.357       .  S
C1596      C1597   1.408       .  A
C1597      C1598   1.400       .  A
C1597      F1600   1.357       .  S
C1598      F1602   1.358       .  S
C1605      C1606   1.404       .  A
C1605      C1610   1.400       .  A
C1605      F1623   1.358       .  S
C1606      C1607   1.404       .  A
C1606      C1611   1.482       .  S
C1607      C1608   1.401       .  A
C1607      F1612   1.358       .  S
C1608      C1609   1.411       .  A
C1608      F1624   1.357       .  S
C1609      C1610   1.409       .  A
C1610      F1613   1.357       .  S
C1611      C1614   1.404       .  A
C1611      C1618   1.407       .  A
C1614      C1615   1.400       .  A
C1614      F1619   1.357       .  S
C1615      C1616   1.406       .  A
C1615      F1621   1.357       .  S
C1616      C1617   1.403       .  A
C1617      C1618   1.403       .  A
C1617      F1620   1.357       .  S
C1618      F1622   1.358       .  S
C1625      C1626   1.407       .  A
C1625      C1630   1.402       .  A
C1625      F1643   1.358       .  S
C1626      C1627   1.409   1_556  A
C1626      C1631   1.493   1_655  S
C1627      C1628   1.401       .  A
C1627      F1632   1.357       .  S
C1628      C1629   1.407   1_554  A
C1628      F1644   1.357       .  S
C1629      C1630   1.409       .  A
C1630      F1633   1.357       .  S
C1631      C1634   1.408   1_556  A
C1631      C1638   1.411       .  A
C1634      C1635   1.398   1_554  A
C1634      F1639   1.358       .  S
C1635      C1636   1.405       .  A
C1635      F1641   1.357   1_556  S
C1636      C1637   1.405       .  A
C1637      C1638   1.403       .  A
C1637      F1640   1.357       .  S
C1638      F1642   1.357       .  S
C1645      C1646   1.407       .  A
C1645      C1650   1.401       .  A
C1645      F1663   1.358       .  S
C1646      C1647   1.410       .  A
C1646      C1651   1.496       .  S
C1647      C1648   1.407       .  A
C1647      F1652   1.358       .  S
C1648      C1649   1.408       .  A
C1648      F1664   1.358       .  S
C1649      C1650   1.407       .  A
C1650      F1653   1.358       .  S
C1651      C1654   1.411       .  A
C1651      C1658   1.408       .  A
C1654      C1655   1.408       .  A
C1654      F1659   1.357       .  S
C1655      C1656   1.405       .  A
C1655      F1661   1.357       .  S
C1656      C1657   1.405       .  A
C1657      C1658   1.398       .  A
C1657      F1660   1.358       .  S
C1658      F1662   1.358       .  S
C1665      C1666   1.405       .  A
C1665      C1670   1.397       .  A
C1665      F1683   1.358       .  S
C1666      C1667   1.409       .  A
C1666      C1671   1.490       .  S
C1667      C1668   1.408       .  A
C1667      F1672   1.357       .  S
C1668      C1669   1.407       .  A
C1668      F1684   1.357       .  S
C1669      C1670   1.408       .  A
C1670      F1673   1.358       .  S
C1671      C1674   1.405       .  A
C1671      C1678   1.407       .  A
C1674      C1675   1.401       .  A
C1674      F1679   1.358       .  S
C1675      C1676   1.411       .  A
C1675      F1681   1.357       .  S
C1676      C1677   1.410       .  A
C1677      C1678   1.404       .  A
C1677      F1680   1.357       .  S
C1678      F1682   1.358       .  S
C1685      C1686   1.409       .  A
C1685      C1690   1.400       .  A
C1685      F1703   1.358       .  S
C1686      C1687   1.409       .  A
C1686      C1691   1.492       .  S
C1687      C1688   1.403       .  A
C1687      F1692   1.357       .  S
C1688      C1689   1.404       .  A
C1688      F1704   1.356       .  S
C1689      C1690   1.403       .  A
C1690      F1693   1.358       .  S
C1691      C1694   1.408       .  A
C1691      C1698   1.407       .  A
C1694      C1695   1.402       .  A
C1694      F1699   1.358       .  S
C1695      C1696   1.408       .  A
C1695      F1701   1.357       .  S
C1696      C1697   1.408       .  A
C1697      C1698   1.402       .  A
C1697      F1700   1.357       .  S
C1698      F1702   1.358       .  S
C1705      C1706   1.402       .  A
C1705      C1710   1.400       .  A
C1705      F1723   1.358       .  S
C1706      C1707   1.404       .  A
C1706      C1711   1.485       .  S
C1707      C1708   1.401       .  A
C1707      F1712   1.358       .  S
C1708      C1709   1.412       .  A
C1708      F1724   1.356       .  S
C1709      C1710   1.414       .  A
C1710      F1713   1.356       .  S
C1711      C1714   1.409       .  A
C1711      C1718   1.405       .  A
C1714      C1715   1.404       .  A
C1714      F1719   1.357       .  S
C1715      C1716   1.403       .  A
C1715      F1721   1.357       .  S
C1716      C1717   1.406       .  A
C1717      C1718   1.398       .  A
C1717      F1720   1.357       .  S
C1718      F1722   1.357       .  S
C1725      C1726   1.408       .  A
C1725      C1730   1.402       .  A
C1725      F1743   1.357       .  S
C1726      C1727   1.407       .  A
C1726      C1731   1.487       .  S
C1727      C1728   1.399       .  A
C1727      F1732   1.358       .  S
C1728      C1729   1.404       .  A
C1728      F1744   1.357       .  S
C1729      C1730   1.405       .  A
C1730      F1733   1.357       .  S
C1731      C1734   1.406       .  A
C1731      C1738   1.406       .  A
C1734      C1735   1.401       .  A
C1734      F1739   1.358       .  S
C1735      C1736   1.406       .  A
C1735      F1741   1.355       .  S
C1736      C1737   1.408       .  A
C1737      C1738   1.402       .  A
C1737      F1740   1.357       .  S
C1738      F1742   1.358       .  S
C1745      C1746   1.407       .  A
C1745      C1750   1.405       .  A
C1745      F1763   1.357       .  S
C1746      C1747   1.407       .  A
C1746      C1751   1.490       .  S
C1747      C1748   1.398       .  A
C1747      F1752   1.358       .  S
C1748      C1749   1.407       .  A
C1748      F1764   1.358       .  S
C1749      C1750   1.408       .  A
C1750      F1753   1.355       .  S
C1751      C1754   1.407       .  A
C1751      C1758   1.408       .  A
C1754      C1755   1.402       .  A
C1754      F1759   1.358       .  S
C1755      C1756   1.408       .  A
C1755      F1761   1.357       .  S
C1756      C1757   1.406       .  A
C1757      C1758   1.400       .  A
C1757      F1760   1.357       .  S
C1758      F1762   1.358       .  S
C1765      C1766   1.404       .  A
C1765      C1770   1.399       .  A
C1765      F1783   1.358   1_554  S
C1766      C1767   1.406       .  A
C1766      C1771   1.485       .  S
C1767      C1768   1.403       .  A
C1767      F1772   1.357       .  S
C1768      C1769   1.409       .  A
C1768      F1784   1.355       .  S
C1769      C1770   1.409       .  A
C1770      F1773   1.358   1_554  S
C1771      C1774   1.405       .  A
C1771      C1778   1.406       .  A
C1774      C1775   1.403       .  A
C1774      F1779   1.358       .  S
C1775      C1776   1.409       .  A
C1775      F1781   1.358       .  S
C1776      C1777   1.407       .  A
C1777      C1778   1.401       .  A
C1777      F1780   1.357   1_554  S
C1778      F1782   1.358   1_554  S
C1785      C1786   1.409       .  A
C1785      C1790   1.404       .  A
C1785      F1803   1.358       .  S
C1786      C1787   1.408       .  A
C1786      C1791   1.492       .  S
C1787      C1788   1.400       .  A
C1787      F1792   1.358       .  S
C1788      C1789   1.406       .  A
C1788      F1804   1.358       .  S
C1789      C1790   1.406       .  A
C1790      F1793   1.358       .  S
C1791      C1794   1.409       .  A
C1791      C1798   1.410       .  A
C1794      C1795   1.399       .  A
C1794      F1799   1.358       .  S
C1795      C1796   1.404       .  A
C1795      F1801   1.357       .  S
C1796      C1797   1.404       .  A
C1797      C1798   1.403       .  A
C1797      F1800   1.357       .  S
C1798      F1802   1.357       .  S
C1805      C1806   1.407       .  A
C1805      C1810   1.400       .  A
C1805      F1823   1.358       .  S
C1806      C1807   1.408       .  A
C1806      C1811   1.491       .  S
C1807      C1808   1.403       .  A
C1807      F1812   1.358       .  S
C1808      C1809   1.408       .  A
C1808      F1824   1.357       .  S
C1809      C1810   1.408       .  A
C1810      F1813   1.358       .  S
C1811      C1814   1.407       .  A
C1811      C1818   1.411       .  A
C1814      C1815   1.396       .  A
C1814      F1819   1.358       .  S
C1815      C1816   1.405       .  A
C1815      F1821   1.358       .  S
C1816      C1817   1.403       .  A
C1817      C1818   1.407       .  A
C1817      F1820   1.357       .  S
C1818      F1822   1.357       .  S
C1825      C1826   1.402       .  A
C1825      C1830   1.400       .  A
C1825      F1843   1.358       .  S
C1826      C1827   1.404       .  A
C1826      C1831   1.485       .  S
C1827      C1828   1.406       .  A
C1827      F1832   1.357       .  S
C1828      C1829   1.411       .  A
C1828      F1844   1.357       .  S
C1829      C1830   1.411       .  A
C1830      F1833   1.357       .  S
C1831      C1834   1.405       .  A
C1831      C1838   1.403       .  A
C1834      C1835   1.404       .  A
C1834      F1839   1.357       .  S
C1835      C1836   1.408       .  A
C1835      F1841   1.357       .  S
C1836      C1837   1.411       .  A
C1837      C1838   1.402       .  A
C1837      F1840   1.358       .  S
C1838      F1842   1.358       .  S
C1845      C1846   1.406       .  A
C1845      C1850   1.400       .  A
C1845      F1863   1.358       .  S
C1846      C1847   1.405       .  A
C1846      C1851   1.489       .  S
C1847      C1848   1.404       .  A
C1847      F1852   1.357       .  S
C1848      C1849   1.410       .  A
C1848      F1864   1.357       .  S
C1849      C1850   1.410       .  A
C1850      F1853   1.357       .  S
C1851      C1854   1.407       .  A
C1851      C1858   1.404       .  A
C1854      C1855   1.408       .  A
C1854      F1859   1.356       .  S
C1855      C1856   1.411       .  A
C1855      F1861   1.356       .  S
C1856      C1857   1.410       .  A
C1857      C1858   1.396       .  A
C1857      F1860   1.358       .  S
C1858      F1862   1.358       .  S
C1865      C1866   1.409       .  A
C1865      C1870   1.401       .  A
C1865      F1883   1.358       .  S
C1866      C1867   1.406       .  A
C1866      C1871   1.490       .  S
C1867      C1868   1.401       .  A
C1867      F1872   1.358       .  S
C1868      C1869   1.409       .  A
C1868      F1884   1.357       .  S
C1869      C1870   1.407       .  A
C1870      F1873   1.358       .  S
C1871      C1874   1.407       .  A
C1871      C1878   1.410       .  A
C1874      C1875   1.398       .  A
C1874      F1879   1.358       .  S
C1875      C1876   1.406       .  A
C1875      F1881   1.357       .  S
C1876      C1877   1.406       .  A
C1877      C1878   1.402       .  A
C1877      F1880   1.357       .  S
C1878      F1882   1.357       .  S
C1885      C1886   1.407       .  A
C1885      C1890   1.399       .  A
C1885      F1903   1.358       .  S
C1886      C1887   1.406       .  A
C1886      C1891   1.485       .  S
C1887      C1888   1.400       .  A
C1887      F1892   1.357       .  S
C1888      C1889   1.405       .  A
C1888      F1904   1.357       .  S
C1889      C1890   1.404       .  A
C1890      F1893   1.354       .  S
C1891      C1894   1.405       .  A
C1891      C1898   1.405       .  A
C1894      C1895   1.399       .  A
C1894      F1899   1.358       .  S
C1895      C1896   1.410       .  A
C1895      F1901   1.357       .  S
C1896      C1897   1.409       .  A
C1897      C1898   1.401       .  A
C1897      F1900   1.357       .  S
C1898      F1902   1.358       .  S
C1905      C1906   1.408       .  A
C1905      C1910   1.395       .  A
C1905      F1923   1.358       .  S
C1906      C1907   1.410       .  A
C1906      C1911   1.489       .  S
C1907      C1908   1.405       .  A
C1907      F1912   1.357       .  S
C1908      C1909   1.406       .  A
C1908      F1924   1.357       .  S
C1909      C1910   1.406       .  A
C1910      F1913   1.358       .  S
C1911      C1914   1.409       .  A
C1911      C1918   1.406       .  A
C1914      C1915   1.400       .  A
C1914      F1919   1.358       .  S
C1915      C1916   1.406       .  A
C1915      F1921   1.356       .  S
C1916      C1917   1.408       .  A
C1917      C1918   1.400       .  A
C1917      F1920   1.358       .  S
C1918      F1922   1.358       .  S
C1925      C1926   1.404       .  A
C1925      C1930   1.402       .  A
C1925      F1943   1.357       .  S
C1926      C1927   1.404       .  A
C1926      C1931   1.479       .  S
C1927      C1928   1.399       .  A
C1927      F1932   1.358       .  S
C1928      C1929   1.406       .  A
C1928      F1944   1.355       .  S
C1929      C1930   1.407       .  A
C1930      F1933   1.357   1_655  S
C1931      C1934   1.404       .  A
C1931      C1938   1.403       .  A
C1934      C1935   1.403       .  A
C1934      F1939   1.357       .  S
C1935      C1936   1.409       .  A
C1935      F1941   1.356       .  S
C1936      C1937   1.408       .  A
C1937      C1938   1.397       .  A
C1937      F1940   1.357       .  S
C1938      F1942   1.358   1_655  S
C1945      C1946   1.409       .  A
C1945      C1950   1.402       .  A
C1945      F1963   1.358       .  S
C1946      C1947   1.407       .  A
C1946      C1951   1.490       .  S
C1947      C1948   1.401       .  A
C1947      F1952   1.358       .  S
C1948      C1949   1.407       .  A
C1948      F1964   1.358       .  S
C1949      C1950   1.405       .  A
C1950      F1953   1.356       .  S
C1951      C1954   1.411       .  A
C1951      C1958   1.407       .  A
C1954      C1955   1.405       .  A
C1954      F1959   1.357       .  S
C1955      C1956   1.404       .  A
C1955      F1961   1.357       .  S
C1956      C1957   1.405       .  A
C1957      C1958   1.396       .  A
C1957      F1960   1.358       .  S
C1958      F1962   1.358       .  S
C1965      C1966   1.402       .  A
C1965      C1970   1.400       .  A
C1965      F1983   1.358       .  S
C1966      C1967   1.406       .  A
C1966      C1971   1.481       .  S
C1967      C1968   1.402       .  A
C1967      F1972   1.358       .  S
C1968      C1969   1.408       .  A
C1968      F1984   1.357       .  S
C1969      C1970   1.409       .  A
C1970      F1973   1.358       .  S
C1971      C1974   1.405       .  A
C1971      C1978   1.403       .  A
C1974      C1975   1.405       .  A
C1974      F1979   1.358       .  S
C1975      C1976   1.411       .  A
C1975      F1981   1.357       .  S
C1976      C1977   1.409       .  A
C1977      C1978   1.397       .  A
C1977      F1980   1.358       .  S
C1978      F1982   1.358       .  S
C1985      C1986   1.407       .  A
C1985      C1990   1.401       .  A
C1985      F2003   1.358       .  S
C1986      C1987   1.404       .  A
C1986      C1991   1.488   1_545  S
C1987      C1988   1.402       .  A
C1987      F1992   1.358   1_545  S
C1988      C1989   1.412       .  A
C1988      F2004   1.357   1_455  S
C1989      C1990   1.409       .  A
C1990      F1993   1.357       .  S
C1991      C1994   1.409       .  A
C1991      C1998   1.405       .  A
C1994      C1995   1.408       .  A
C1994      F1999   1.357       .  S
C1995      C1996   1.409       .  A
C1995      F2001   1.357       .  S
C1996      C1997   1.406       .  A
C1997      C1998   1.394       .  A
C1997      F2000   1.358       .  S
C1998      F2002   1.358       .  S
C2005      C2006   1.408       .  A
C2005      C2010   1.396       .  A
C2005      F2023   1.358       .  S
C2006      C2007   1.407       .  A
C2006      C2011   1.487   1_655  S
C2007      C2008   1.403       .  A
C2007      F2012   1.358       .  S
C2008      C2009   1.409       .  A
C2008      F2024   1.358       .  S
C2009      C2010   1.403       .  A
C2010      F2013   1.357       .  S
C2011      C2014   1.406       .  A
C2011      C2018   1.409       .  A
C2014      C2015   1.394       .  A
C2014      F2019   1.358       .  S
C2015      C2016   1.405       .  A
C2015      F2021   1.357       .  S
C2016      C2017   1.408       .  A
C2017      C2018   1.404       .  A
C2017      F2020   1.357       .  S
C2018      F2022   1.357       .  S
C2025      C2026   1.403       .  A
C2025      C2030   1.399       .  A
C2025      F2043   1.358       .  S
C2026      C2027   1.404       .  A
C2026      C2031   1.480       .  S
C2027      C2028   1.401       .  A
C2027      F2032   1.358       .  S
C2028      C2029   1.409       .  A
C2028      F2044   1.357       .  S
C2029      C2030   1.410       .  A
C2030      F2033   1.357       .  S
C2031      C2034   1.406       .  A
C2031      C2038   1.404       .  A
C2034      C2035   1.401       .  A
C2034      F2039   1.358       .  S
C2035      C2036   1.406       .  A
C2035      F2041   1.357       .  S
C2036      C2037   1.406       .  A
C2037      C2038   1.399       .  A
C2037      F2040   1.357       .  S
C2038      F2042   1.358       .  S
C2045      C2046   1.405       .  A
C2045      C2050   1.401       .  A
C2045      F2063   1.358       .  S
C2046      C2047   1.408       .  A
C2046      C2051   1.489       .  S
C2047      C2048   1.400       .  A
C2047      F2052   1.358       .  S
C2048      C2049   1.407       .  A
C2048      F2064   1.356       .  S
C2049      C2050   1.409       .  A
C2050      F2053   1.357       .  S
C2051      C2054   1.408       .  A
C2051      C2058   1.406       .  A
C2054      C2055   1.406       .  A
C2054      F2059   1.357       .  S
C2055      C2056   1.409       .  A
C2055      F2061   1.356       .  S
C2056      C2057   1.409       .  A
C2057      C2058   1.396       .  A
C2057      F2060   1.358       .  S
C2058      F2062   1.359       .  S
C2065      C2066   1.404       .  A
C2065      C2070   1.401       .  A
C2065      F2083   1.357       .  S
C2066      C2067   1.407       .  A
C2066      C2071   1.486       .  S
C2067      C2068   1.404       .  A
C2067      F2072   1.358       .  S
C2068      C2069   1.407       .  A
C2068      F2084   1.356       .  S
C2069      C2070   1.408       .  A
C2070      F2073   1.357       .  S
C2071      C2074   1.403       .  A
C2071      C2078   1.403       .  A
C2074      C2075   1.402       .  A
C2074      F2079   1.358       .  S
C2075      C2076   1.413       .  A
C2075      F2081   1.356       .  S
C2076      C2077   1.414       .  A
C2077      C2078   1.402       .  A
C2077      F2080   1.357       .  S
C2078      F2082   1.358       .  S
C2085      C2086   1.403       .  A
C2085      C2090   1.400       .  A
C2085      F2103   1.358   1_556  S
C2086      C2087   1.403       .  A
C2086      C2091   1.486       .  S
C2087      C2088   1.403       .  A
C2087      F2092   1.358       .  S
C2088      C2089   1.415       .  A
C2088      F2104   1.356       .  S
C2089      C2090   1.414       .  A
C2090      F2093   1.355   1_556  S
C2091      C2094   1.409       .  A
C2091      C2098   1.405   1_556  A
C2094      C2095   1.405       .  A
C2094      F2099   1.358       .  S
C2095      C2096   1.406       .  A
C2095      F2101   1.357       .  S
C2096      C2097   1.406   1_556  A
C2097      C2098   1.398       .  A
C2097      F2100   1.357       .  S
C2098      F2102   1.358       .  S
C2105      C2106   1.407       .  A
C2105      C2110   1.397       .  A
C2105      F2123   1.358       .  S
C2106      C2107   1.411       .  A
C2106      C2111   1.492       .  S
C2107      C2108   1.407       .  A
C2107      F2112   1.357       .  S
C2108      C2109   1.404       .  A
C2108      F2124   1.357       .  S
C2109      C2110   1.405       .  A
C2110      F2113   1.358       .  S
C2111      C2114   1.408       .  A
C2111      C2118   1.409       .  A
C2114      C2115   1.402       .  A
C2114      F2119   1.358       .  S
C2115      C2116   1.407       .  A
C2115      F2121   1.358       .  S
C2116      C2117   1.407       .  A
C2117      C2118   1.402       .  A
C2117      F2120   1.358       .  S
C2118      F2122   1.358       .  S
C2125      C2126   1.405       .  A
C2125      C2130   1.399       .  A
C2125      F2143   1.358       .  S
C2126      C2127   1.407       .  A
C2126      C2131   1.486       .  S
C2127      C2128   1.403       .  A
C2127      F2132   1.358       .  S
C2128      C2129   1.407       .  A
C2128      F2144   1.357       .  S
C2129      C2130   1.407       .  A
C2130      F2133   1.358       .  S
C2131      C2134   1.404       .  A
C2131      C2138   1.403       .  A
C2134      C2135   1.403       .  A
C2134      F2139   1.358       .  S
C2135      C2136   1.413       .  A
C2135      F2141   1.356       .  S
C2136      C2137   1.414       .  A
C2137      C2138   1.399       .  A
C2137      F2140   1.356       .  S
C2138      F2142   1.358       .  S
C2145      C2146   1.409       .  A
C2145      C2150   1.408       .  A
C2145      F2163   1.357       .  S
C2146      C2147   1.404       .  A
C2146      C2151   1.486       .  S
C2147      C2148   1.393       .  A
C2147      F2152   1.358       .  S
C2148      C2149   1.405       .  A
C2148      F2164   1.358       .  S
C2149      C2150   1.408       .  A
C2150      F2153   1.357       .  S
C2151      C2154   1.407       .  A
C2151      C2158   1.405       .  A
C2154      C2155   1.398       .  A
C2154      F2159   1.358       .  S
C2155      C2156   1.406       .  A
C2155      F2161   1.358       .  S
C2156      C2157   1.408       .  A
C2157      C2158   1.404       .  A
C2157      F2160   1.357       .  S
C2158      F2162   1.357       .  S
C2165      C2166   1.408       .  A
C2165      C2170   1.399       .  A
C2165      F2183   1.357       .  S
C2166      C2167   1.406       .  A
C2166      C2171   1.487       .  S
C2167      C2168   1.401       .  A
C2167      F2172   1.358       .  S
C2168      C2169   1.409       .  A
C2168      F2184   1.358       .  S
C2169      C2170   1.405       .  A
C2170      F2173   1.357       .  S
C2171      C2174   1.406       .  A
C2171      C2178   1.409       .  A
C2174      C2175   1.396       .  A
C2174      F2179   1.358       .  S
C2175      C2176   1.405       .  A
C2175      F2181   1.357       .  S
C2176      C2177   1.406       .  A
C2177      C2178   1.403       .  A
C2177      F2180   1.357       .  S
C2178      F2182   1.358       .  S
