geometry optimzed in LAMMPS
_audit_creation_date              2020-11-30 
_audit_creation_method            'lammps2cif' 
_symmetry_space_group_name_H-M    'P1' 
_symmetry_Int_Tables_number       1 
_symmetry_cell_setting            triclinic 
loop_ 
_symmetry_equiv_pos_as_xyz 
  x,y,z 
_cell_length_a                    64.09322281 
_cell_length_b                    64.08112366737548 
_cell_length_c                    63.9269534509496 
_cell_angle_alpha                 90.07003010298155 
_cell_angle_beta                  90.00302464969363 
_cell_angle_gamma                 89.87663956039421 
loop_ 
_atom_site_label 
_atom_site_type_symbol 
_atom_site_fract_x 
_atom_site_fract_y 
_atom_site_fract_z 
_atom_site_charge 
Zn1        Zn  0.27843568  0.72315754  0.49323417     1.49700
Zn2        Zn  0.24078862  0.69325386  0.48860916     1.49400
Zn3        Zn  0.24489822  0.72192039  0.52876992     1.49100
Zn4        Zn  0.23383687  0.74341847  0.48541566     1.49500
O5          O  0.24914166  0.72062713  0.49885771    -1.84100
O6          O  0.28654749  0.70378637  0.46997134    -0.74700
O7          O  0.22724877  0.67588723  0.51142380    -0.74500
O8          O  0.27182857  0.71472360  0.54404771    -0.74000
O9          O  0.26366147  0.67799378  0.47248893    -0.74700
O10         O  0.29544848  0.71538471  0.51861191    -0.74300
O11         O  0.22417872  0.69975525  0.53667055    -0.74900
O12         O  0.21831813  0.76017243  0.50741193    -0.74300
O13         O  0.21885099  0.69782900  0.46717931    -0.75000
O14         O  0.23262407  0.75003166  0.53752832    -0.74400
O15         O  0.21286828  0.73195047  0.46400870    -0.74900
O16         O  0.25456407  0.76382720  0.47203473    -0.74800
O17         O  0.28514188  0.75193092  0.48347019    -0.74600
C18         C  0.27996768  0.68592237  0.46431353     0.77200
C19         C  0.21992698  0.68192035  0.52897336     0.77700
C20         C  0.29054229  0.71220055  0.53766409     0.76600
C21         C  0.22076958  0.76224902  0.52711408     0.77000
C22         C  0.20926395  0.71304948  0.45877677     0.78100
C23         C  0.27433501  0.76571633  0.47402964     0.77200
Zn24       Zn  0.77556170  0.72603549  0.00988501     1.49700
Zn25       Zn  0.74274180  0.72621109  0.97369394     1.49400
Zn26       Zn  0.73675055  0.69719940  0.01259211     1.49100
Zn27       Zn  0.73244990  0.74730153  0.01838444     1.49500
O28         O  0.74640711  0.72440983  0.00369684    -1.84100
O29         O  0.79195898  0.71645175  0.98487408    -0.74700
O30         O  0.72314256  0.70378552  0.96385666    -0.74500
O31         O  0.75809536  0.68262047  0.03121484    -0.74000
O32         O  0.76986620  0.72050798  0.95837458    -0.74700
O33         O  0.78240873  0.70715250  0.03397675    -0.74300
O34         O  0.72581313  0.67938217  0.98847448    -0.74900
O35         O  0.71040506  0.73571626  0.03906491    -0.74300
O36         O  0.72995360  0.75380652  0.96603581    -0.75000
O37         O  0.71209349  0.70196045  0.03069388    -0.74400
O38         O  0.71802444  0.76528198  0.99670852    -0.74900
O39         O  0.75399041  0.76711594  0.03169668    -0.74800
O40         O  0.78366168  0.75513217  0.01821592    -0.74600
C41         C  0.78777078  0.71538404  0.96540904     0.77200
C42         C  0.71927575  0.68555175  0.97066876     0.77700
C43         C  0.77461686  0.68982004  0.03972406     0.76600
C44         C  0.70363487  0.71698904  0.04057006     0.77000
C45         C  0.71951704  0.76691273  0.97685592     0.78100
C46         C  0.77357348  0.76906641  0.02826873     0.77200
Zn47       Zn  0.21983994  0.50264948  0.21752477     1.49700
Zn48       Zn  0.23780652  0.48955510  0.26243738     1.49400
Zn49       Zn  0.21733612  0.53410184  0.25458042     1.49100
Zn50       Zn  0.18804243  0.49587684  0.25430668     1.49500
O51         O  0.21601322  0.50504792  0.24740718    -1.84100
O52         O  0.24778498  0.49028654  0.21099796    -0.74700
O53         O  0.25688011  0.51024538  0.27784924    -0.74500
O54         O  0.21069801  0.55213999  0.22941838    -0.74000
O55         O  0.25699713  0.47510628  0.24094618    -0.74700
O56         O  0.21524516  0.53024147  0.20287430    -0.74300
O57         O  0.24525789  0.54093278  0.26643924    -0.74900
O58         O  0.17101099  0.51849481  0.26882771    -0.74300
O59         O  0.22411001  0.46855513  0.28309067    -0.75000
O60         O  0.19625101  0.54092691  0.27666320    -0.74400
O61         O  0.19053665  0.47294150  0.27519132    -0.74900
O62         O  0.17317238  0.48363152  0.22918614    -0.74800
O63         O  0.19857463  0.48316803  0.20554361    -0.74600
C64         C  0.25995628  0.47845627  0.22141515     0.77200
C65         C  0.25860243  0.53008301  0.27645188     0.77700
C66         C  0.21064262  0.54831785  0.20983678     0.76600
C67         C  0.17767076  0.53438715  0.27879528     0.77000
C68         C  0.20483292  0.46387969  0.28563571     0.78100
C69         C  0.18032940  0.47804215  0.21142039     0.77200
Zn70       Zn  0.47449531  0.25307559  0.21927864     1.49700
Zn71       Zn  0.51023224  0.24895664  0.18606558     1.49400
Zn72       Zn  0.50929051  0.28567186  0.21891457     1.49100
Zn73       Zn  0.52023871  0.23942118  0.23408276     1.49500
O74         O  0.50391119  0.25643702  0.21461604    -1.84100
O75         O  0.46389908  0.23251632  0.19850692    -0.74700
O76         O  0.52638091  0.27215336  0.17155836    -0.74500
O77         O  0.48363013  0.30368427  0.21414964    -0.74000
O78         O  0.48485386  0.23706610  0.17112652    -0.74700
O79         O  0.45856318  0.27993328  0.21286822    -0.74300
O80         O  0.52986662  0.29521546  0.19744238    -0.74900
O81         O  0.53762321  0.25891159  0.25268250    -0.74300
O82         O  0.52937326  0.22471823  0.18611918    -0.75000
O83         O  0.52193934  0.28967301  0.24738387    -0.74400
O84         O  0.53790173  0.21670335  0.21871713    -0.74900
O85         O  0.49994430  0.22516825  0.25386469    -0.74800
O86         O  0.46937392  0.24090619  0.24811022    -0.74600
C87         C  0.46868293  0.22896714  0.17950434     0.77200
C88         C  0.53429663  0.28884791  0.17908665     0.77700
C89         C  0.46466482  0.29876628  0.21086094     0.76600
C90         C  0.53439542  0.27800410  0.25767501     0.77000
C91         C  0.53903015  0.21316667  0.19903269     0.78100
C92         C  0.48084152  0.22839713  0.25863720     0.77200
Zn93       Zn  0.24514084  0.21994986  0.46599535     1.49700
Zn94       Zn  0.24262320  0.18928373  0.50360440     1.49400
Zn95       Zn  0.27929552  0.22158897  0.50076107     1.49100
Zn96       Zn  0.23379058  0.23798393  0.51178270     1.49500
O97         O  0.24994136  0.21739716  0.49571400    -1.84100
O98         O  0.22486562  0.19765212  0.45689540    -0.74700
O99         O  0.26555751  0.17574636  0.52062663    -0.74500
O100        O  0.29638647  0.21641364  0.47467006    -0.74000
O101        O  0.23234964  0.17189291  0.47901660    -0.74700
O102        O  0.27228840  0.21445258  0.44977395    -0.74300
O103        O  0.28931655  0.20092948  0.52227368    -0.74900
O104        O  0.25366908  0.25754067  0.52773626    -0.74300
O105        O  0.21830184  0.19088388  0.52274822    -0.75000
O106        O  0.28396940  0.25048348  0.51203541    -0.74400
O107        O  0.21179633  0.22391285  0.53092572    -0.74900
O108        O  0.21885531  0.25673753  0.49110488    -0.74800
O109        O  0.23175744  0.24807489  0.45985326    -0.74600
C110        C  0.22319395  0.17871330  0.46267146     0.77200
C111        C  0.28257478  0.18309464  0.52788701     0.77700
C112        C  0.29130912  0.21314875  0.45567477     0.76600
C113        C  0.27277702  0.26189851  0.52395178     0.77000
C114        C  0.20764262  0.20446836  0.53260298     0.78100
C115        C  0.22056608  0.25990447  0.47145674     0.77200
Zn116      Zn  0.68708800  0.51647176  0.26006140     1.49700
Zn117      Zn  0.71756159  0.51293636  0.22188572     1.49400
Zn118      Zn  0.73618785  0.52485661  0.26586788     1.49100
Zn119      Zn  0.71910744  0.47889371  0.25592401     1.49500
O120        O  0.71500058  0.50850586  0.25132707    -1.84100
O121        O  0.67180251  0.53312901  0.23720825    -0.74700
O122        O  0.74567770  0.52453842  0.21480326    -0.74500
O123        O  0.72299157  0.54481406  0.28742337    -0.74000
O124        O  0.69617769  0.53351030  0.21251391    -0.74700
O125        O  0.68956753  0.53584011  0.28448598    -0.74300
O126        O  0.75384392  0.54055475  0.24465005    -0.74900
O127        O  0.74788389  0.47362325  0.26764093    -0.74300
O128        O  0.71151206  0.48674210  0.20600877    -0.75000
O129        O  0.75633870  0.50491900  0.28034170    -0.74400
O130        O  0.71326987  0.46147911  0.22958308    -0.74900
O131        O  0.69813731  0.46956286  0.27720334    -0.74800
O132        O  0.67142128  0.49119124  0.27128846    -0.74600
C133        C  0.67855409  0.53947115  0.21950715     0.77200
C134        C  0.75718351  0.53692089  0.22528179     0.77700
C135        C  0.70398705  0.54625600  0.29330794     0.76600
C136        C  0.75993662  0.48539863  0.27826937     0.77000
C137        C  0.70978007  0.46758360  0.21091559     0.78100
C138        C  0.67914677  0.47485991  0.27976507     0.77200
Zn139      Zn  0.00827922  0.28441996  0.28782002     1.49700
Zn140      Zn  0.01598137  0.24146616  0.26424334     1.49400
Zn141      Zn  0.00930239  0.24313967  0.31429850     1.49100
Zn142      Zn  0.97108239  0.25302867  0.28306344     1.49500
O143        O  0.00118095  0.25519085  0.28731215    -1.84100
O144        O  0.02209752  0.29332146  0.26114030    -0.74700
O145        O  0.03730627  0.22027911  0.27518244    -0.74500
O146        O  0.02318175  0.26443211  0.33359054    -0.74000
O147        O  0.02971500  0.26316944  0.24554159    -0.74700
O148        O  0.02871044  0.28993241  0.31067250    -0.74300
O149        O  0.03170290  0.22175507  0.30955101    -0.74900
O150        O  0.95900788  0.23482206  0.30536600    -0.74300
O151        O  0.99555157  0.22655821  0.24556009    -0.75000
O152        O  0.98472802  0.22838708  0.32792804    -0.74400
O153        O  0.96465571  0.23915257  0.25525735    -0.74900
O154        O  0.95604554  0.28076347  0.28677040    -0.74800
O155        O  0.98264676  0.30187544  0.29333834    -0.74600
C156        C  0.03021127  0.28306628  0.24612939     0.77200
C157        C  0.04138490  0.21437698  0.29380910     0.77700
C158        C  0.03206460  0.28140880  0.32829300     0.76600
C159        C  0.96580845  0.22640650  0.32204596     0.77000
C160        C  0.97589417  0.22812884  0.24296558     0.78100
C161        C  0.96306431  0.29855863  0.29219666     0.77200
Zn162      Zn  0.78176798  0.00065847  0.28360920     1.49700
Zn163      Zn  0.81069380  0.00012976  0.24443492     1.49400
Zn164      Zn  0.76120980  0.99115204  0.24007913     1.49100
Zn165      Zn  0.77796414  0.03698452  0.25327073     1.49500
O166        O  0.78287319  0.00714262  0.25464674    -1.84100
O167        O  0.80250232  0.97900067  0.29039665    -0.74700
O168        O  0.80750771  0.98240833  0.21888386    -0.74500
O169        O  0.74253215  0.97591812  0.26150780    -0.74000
O170        O  0.82637811  0.98134616  0.26533767    -0.74700
O171        O  0.75413195  0.98948812  0.29133462    -0.74300
O172        O  0.77455992  0.97143340  0.21788090    -0.74900
O173        O  0.75020469  0.04275517  0.23927629    -0.74300
O174        O  0.82634451  0.02641489  0.23497316    -0.75000
O175        O  0.74198604  0.01188211  0.22541513    -0.74400
O176        O  0.79985841  0.04893921  0.23494701    -0.74900
O177        O  0.78250523  0.05239966  0.28122007    -0.74800
O178        O  0.78902654  0.02510048  0.30131262    -0.74600
C179        C  0.81983562  0.97349740  0.28249881     0.77200
C180        C  0.79323390  0.97127474  0.21070215     0.77700
C181        C  0.74090068  0.97862521  0.28129347     0.76600
C182        C  0.73868830  0.03146093  0.22751464     0.77000
C183        C  0.81854583  0.04416412  0.23015363     0.78100
C184        C  0.78860404  0.04472912  0.29859380     0.77200
Zn185      Zn  0.74563435  0.81587066  0.50652198     1.49700
Zn186      Zn  0.75032498  0.78254298  0.46978547     1.49400
Zn187      Zn  0.78122695  0.78301790  0.50600262     1.49100
Zn188      Zn  0.73541299  0.76725734  0.51444092     1.49500
O189        O  0.75261410  0.78725677  0.49947242    -1.84100
O190        O  0.73498664  0.83138871  0.48049695    -0.74700
O191        O  0.77776877  0.78819606  0.45441939    -0.74500
O192        O  0.78992862  0.80255082  0.52869153    -0.74000
O193        O  0.73067600  0.80405967  0.45932700    -0.74700
O194        O  0.76865148  0.82969353  0.52450873    -0.74300
O195        O  0.79920386  0.79041132  0.48152154    -0.74900
O196        O  0.75459499  0.74692537  0.53009717    -0.74300
O197        O  0.73700380  0.75439063  0.46357777    -0.75000
O198        O  0.78559274  0.75370100  0.51569636    -0.74400
O199        O  0.71974087  0.74949130  0.49343840    -0.74900
O200        O  0.71378392  0.78218493  0.53315108    -0.74800
O201        O  0.72085219  0.81515823  0.52522174    -0.74600
C202        C  0.72710860  0.82303214  0.46409304     0.77200
C203        C  0.79570522  0.79231312  0.46202403     0.77700
C204        C  0.78444238  0.82110432  0.53329568     0.76600
C205        C  0.77377842  0.74228926  0.52689668     0.77000
C206        C  0.72329787  0.74473967  0.47437809     0.78100
C207        C  0.70987442  0.80170558  0.53481102     0.77200
C208        C  0.89997086  0.86905654  0.37012284    -0.02400
C209        C  0.86574620  0.13547044  0.40352960    -0.02400
C210        C  0.87248891  0.90154843  0.63840968    -0.02400
C211        C  0.13310910  0.10346583  0.35723145    -0.02400
C212        C  0.10260359  0.14479403  0.63532171    -0.02400
C213        C  0.13357300  0.87101864  0.60274419    -0.02400
Zn214      Zn  0.03345030  0.01206537  0.50421528     1.49700
Zn215      Zn  0.98731129  0.02424581  0.52252798     1.49400
Zn216      Zn  0.99436583  0.01452424  0.47318507     1.49100
Zn217      Zn  0.99715240  0.97802494  0.50614321     1.49500
O218        O  0.00308986  0.00746066  0.50161234    -1.84100
O219        O  0.03853569  0.03392401  0.52641239    -0.74700
O220        O  0.96631275  0.04313755  0.50787664    -0.74500
O221        O  0.01848435  0.02612089  0.45633225    -0.74000
O222        O  0.00723577  0.04302715  0.53869695    -0.74700
O223        O  0.04623088  0.02256123  0.47687314    -0.74300
O224        O  0.97207618  0.03658012  0.47411540    -0.74900
O225        O  0.98636630  0.96331860  0.48033371    -0.74300
O226        O  0.97076861  0.00562201  0.54298469    -0.75000
O227        O  0.98246870  0.98933171  0.45782992    -0.74400
O228        O  0.97537525  0.97449278  0.52834934    -0.74900
O229        O  0.02274430  0.96322622  0.51622347    -0.74800
O230        O  0.04877131  0.98588562  0.51389507    -0.74600
C231        C  0.02706006  0.04479980  0.53855568     0.77200
C232        C  0.96243092  0.04627082  0.48857826     0.77700
C233        C  0.03802962  0.02805414  0.45952775     0.76600
C234        C  0.98057974  0.97007771  0.46253439     0.77000
C235        C  0.96684208  0.98609992  0.54208334     0.78100
C236        C  0.04192298  0.96781553  0.51856690     0.77200
Zn237      Zn  0.76055823  0.31549467  0.50862723     1.49700
Zn238      Zn  0.75453537  0.28308032  0.47231109     1.49400
Zn239      Zn  0.76529950  0.26592219  0.51717933     1.49100
Zn240      Zn  0.72121183  0.28684841  0.50766375     1.49500
O241        O  0.75066376  0.28775315  0.50178218    -1.84100
O242        O  0.77242582  0.33025881  0.48299180    -0.74700
O243        O  0.76561018  0.25419558  0.46639228    -0.74500
O244        O  0.78631325  0.27863944  0.53774449    -0.74000
O245        O  0.77547727  0.30335080  0.46109810    -0.74700
O246        O  0.78359825  0.31236699  0.52950999    -0.74300
O247        O  0.78111710  0.24765061  0.49687939    -0.74900
O248        O  0.71371543  0.25887222  0.51918143    -0.74300
O249        O  0.72802134  0.28952924  0.45669161    -0.75000
O250        O  0.74394784  0.24656986  0.53117471    -0.74400
O251        O  0.70424065  0.29331803  0.48170664    -0.74900
O252        O  0.71417048  0.30841997  0.52939979    -0.74800
O253        O  0.73856175  0.33254232  0.52410492    -0.74600
C254        C  0.77924114  0.32220466  0.46603451     0.77200
C255        C  0.77805720  0.24345577  0.47762725     0.77700
C256        C  0.79180791  0.29765382  0.54007842     0.76600
C257        C  0.72414377  0.24508890  0.52905910     0.77000
C258        C  0.70953024  0.29404160  0.46250040     0.78100
C259        C  0.72192155  0.32632323  0.53305909     0.77200
Zn260      Zn  0.98474051  0.76507350  0.74132139     1.49700
Zn261      Zn  0.99463678  0.72084940  0.72109347     1.49400
Zn262      Zn  0.99190058  0.76016543  0.69172192     1.49100
Zn263      Zn  0.02974070  0.75411203  0.72238509     1.49500
O264        O  0.00005951  0.75038684  0.71924547    -1.84100
O265        O  0.96991413  0.74405306  0.76003772    -0.74700
O266        O  0.97202094  0.71369992  0.70070591    -0.74500
O267        O  0.97305638  0.78446240  0.69540076    -0.74000
O268        O  0.98356224  0.71377820  0.74964306    -0.74700
O269        O  0.96474652  0.78739910  0.72907238    -0.74300
O270        O  0.97443712  0.73835766  0.67636941    -0.74900
O271        O  0.04016083  0.77399975  0.70093133    -0.74300
O272        O  0.02037398  0.70370366  0.71344099    -0.75000
O273        O  0.01635492  0.77253777  0.67559083    -0.74400
O274        O  0.04535150  0.72753602  0.71588308    -0.74900
O275        O  0.03656600  0.76652720  0.75051513    -0.74800
O276        O  0.00571126  0.77910443  0.76051252    -0.74600
C277        C  0.97261016  0.72443127  0.76248241     0.77200
C278        C  0.96631092  0.72153272  0.68331787     0.77700
C279        C  0.96323234  0.79352090  0.71009696     0.76600
C280        C  0.03389606  0.77874643  0.68269162     0.77000
C281        C  0.03946707  0.70901945  0.71168307     0.78100
C282        C  0.02539783  0.77729349  0.76307252     0.77200
C283        C  0.13049196  0.60538097  0.63340608    -0.02400
C284        C  0.13823567  0.37401775  0.39821047    -0.02400
C285        C  0.86117608  0.63560884  0.60284768    -0.02400
C286        C  0.86597043  0.40327358  0.36179258    -0.02400
C287        C  0.90024439  0.36867376  0.62996918    -0.02400
C288        C  0.10334888  0.64189827  0.36682819    -0.02400
Zn289      Zn  0.96963583  0.50040263  0.50150989     1.49700
Zn290      Zn  0.00481057  0.50347870  0.46659749     1.49400
Zn291      Zn  0.00404889  0.53479220  0.50468095     1.49100
Zn292      Zn  0.01716766  0.48684686  0.51333040     1.49500
O293        O  0.99911416  0.50608941  0.49663236    -1.84100
O294        O  0.95613636  0.48918628  0.47559458    -0.74700
O295        O  0.01367930  0.53088590  0.45359306    -0.74500
O296        O  0.97819095  0.54891609  0.51541110    -0.74000
O297        O  0.98021762  0.49151279  0.45072801    -0.74700
O298        O  0.95316240  0.52527133  0.51279673    -0.74300
O299        O  0.01624486  0.55171583  0.48123898    -0.74900
O300        O  0.03480824  0.50329074  0.53463584    -0.74300
O301        O  0.02875603  0.48368044  0.46248790    -0.75000
O302        O  0.02406961  0.53565906  0.52818488    -0.74400
O303        O  0.03742891  0.47141370  0.49384590    -0.74900
O304        O  0.99893946  0.46571041  0.52961579    -0.74800
O305        O  0.96715193  0.47748399  0.52225754    -0.74600
C306        C  0.96207154  0.48619808  0.45682892     0.77200
C307        C  0.01869253  0.54830984  0.46177274     0.77700
C308        C  0.95930955  0.54342569  0.51808317     0.76600
C309        C  0.03509397  0.52283039  0.53855584     0.77000
C310        C  0.04013300  0.47213810  0.47404734     0.78100
C311        C  0.97910290  0.46471760  0.53169469     0.77200
C312        C  0.64138476  0.37481679  0.10077875    -0.02400
C313        C  0.59700390  0.64338990  0.13102799    -0.02400
C314        C  0.39368678  0.36824296  0.87130238    -0.02400
C315        C  0.36180176  0.63466265  0.89435734    -0.02400
C316        C  0.63405807  0.61046366  0.86033831    -0.02400
C317        C  0.37335381  0.40633921  0.13640322    -0.02400
Zn318      Zn  0.49610967  0.50720920  0.96445556     1.49700
Zn319      Zn  0.48504318  0.52254918  0.01144951     1.49400
Zn320      Zn  0.49976552  0.47499971  0.00172831     1.49100
Zn321      Zn  0.53320988  0.51093546  0.99852869     1.49500
O322        O  0.50347695  0.50420602  0.99414907    -1.84100
O323        O  0.47163194  0.52681706  0.96089265    -0.74700
O324        O  0.46790338  0.50482879  0.03256645    -0.74500
O325        O  0.48856445  0.45761101  0.97793511    -0.74000
O326        O  0.46472782  0.53909559  0.99270134    -0.74700
O327        O  0.48743943  0.47967667  0.95128273    -0.74300
O328        O  0.47914151  0.47297042  0.02477184    -0.74900
O329        O  0.55043206  0.48614666  0.00926650    -0.74300
O330        O  0.50289296  0.54344025  0.02801135    -0.75000
O331        O  0.52628100  0.46166583  0.01228007    -0.74400
O332        O  0.53548773  0.53377920  0.02042923    -0.74900
O333        O  0.54612951  0.52148993  0.97150439    -0.74800
O334        O  0.52027907  0.51956560  0.94832905    -0.74600
C335        C  0.46111726  0.53860455  0.97303172     0.77200
C336        C  0.46769134  0.48508577  0.03560208     0.77700
C337        C  0.48452910  0.46150842  0.95883455     0.76600
C338        C  0.54506969  0.46771203  0.01447306     0.77000
C339        C  0.52260015  0.54532621  0.03035793     0.78100
C340        C  0.53899024  0.52437662  0.95309096     0.77200
Zn341      Zn  0.25941184  0.51818033  0.76240703     1.49700
Zn342      Zn  0.27942140  0.50926663  0.71752299     1.49400
Zn343      Zn  0.30923189  0.51244368  0.75743312     1.49100
Zn344      Zn  0.27887307  0.47386460  0.75037351     1.49500
O345        O  0.28178137  0.50368841  0.74725458    -1.84100
O346        O  0.24121907  0.53413691  0.74179125    -0.74700
O347        O  0.30184004  0.52924944  0.70914172    -0.74500
O348        O  0.30533774  0.53537483  0.77836791    -0.74000
O349        O  0.25142663  0.52197313  0.71069847    -0.74700
O350        O  0.27123923  0.53844951  0.78435634    -0.74300
O351        O  0.32601705  0.52599151  0.73396201    -0.74900
O352        O  0.30027070  0.46384000  0.77041679    -0.74300
O353        O  0.28545278  0.48378512  0.69985202    -0.75000
O354        O  0.32439490  0.48857667  0.77295636    -0.74400
O355        O  0.28596466  0.45841835  0.72347493    -0.74900
O356        O  0.25074402  0.46655359  0.76281509    -0.74800
O357        O  0.24009945  0.49695759  0.77598396    -0.74600
C358        C  0.23894303  0.53260431  0.72201914     0.77200
C359        C  0.31994957  0.53318941  0.71633039     0.77700
C360        C  0.29008800  0.54384947  0.78789614     0.76600
C361        C  0.31766203  0.47034148  0.77740759     0.77000
C362        C  0.28867442  0.46484742  0.70482818     0.78100
C363        C  0.23789735  0.47727212  0.77373813     0.77200
C364        C  0.63205195  0.64037804  0.39874653    -0.02400
C365        C  0.63025005  0.40461440  0.63568286    -0.02400
C366        C  0.39795493  0.63958370  0.62894278    -0.02400
C367        C  0.36866474  0.60862675  0.35867228    -0.02400
C368        C  0.60564831  0.36604781  0.36714726    -0.02400
C369        C  0.35954125  0.37085878  0.59801205    -0.02400
Zn370      Zn  0.50420225  0.50783414  0.46618190     1.49700
Zn371      Zn  0.51594119  0.51916138  0.51454180     1.49400
Zn372      Zn  0.46812344  0.50888144  0.50041313     1.49100
Zn373      Zn  0.50145065  0.47281436  0.50116354     1.49500
O374        O  0.49759293  0.50239564  0.49568473    -1.84100
O375        O  0.52567024  0.53076656  0.46445956    -0.74700
O376        O  0.49804550  0.53882145  0.53254667    -0.74500
O377        O  0.45478436  0.52089516  0.47465822    -0.74000
O378        O  0.53603614  0.53727798  0.49709514    -0.74700
O379        O  0.47919130  0.51841896  0.45010744    -0.74300
O380        O  0.46587275  0.53133759  0.52185055    -0.74900
O381        O  0.47488425  0.45861717  0.51043263    -0.74300
O382        O  0.53260572  0.50028379  0.53454997    -0.75000
O383        O  0.45128292  0.48397028  0.51071960    -0.74400
O384        O  0.52126851  0.46909078  0.52473834    -0.74900
O385        O  0.51420333  0.45794631  0.47648613    -0.74800
O386        O  0.51578942  0.48208735  0.45159617    -0.74600
C387        C  0.53710482  0.54065689  0.47741048     0.77200
C388        C  0.47834766  0.54183670  0.53318497     0.77700
C389        C  0.46095712  0.52374565  0.45595928     0.76600
C390        C  0.45642539  0.46505051  0.51414604     0.77000
C391        C  0.53247687  0.48045154  0.53654050     0.78100
C392        C  0.51913786  0.46355612  0.45803396     0.77200
Zn393      Zn  0.46798653  0.74849932  0.78043116     1.49700
Zn394      Zn  0.51243201  0.73881669  0.76008718     1.49400
Zn395      Zn  0.50158360  0.78351025  0.77842940     1.49100
Zn396      Zn  0.50802086  0.74626909  0.80966025     1.49500
O397        O  0.49759064  0.75394457  0.78211839    -1.84100
O398        O  0.46060313  0.73496481  0.75274478    -0.74700
O399        O  0.52742924  0.75941858  0.74118142    -0.74500
O400        O  0.47519688  0.79979267  0.78451046    -0.74000
O401        O  0.49157887  0.72435304  0.74110992    -0.74700
O402        O  0.45121531  0.77488578  0.78560907    -0.74300
O403        O  0.51181548  0.78942688  0.74944346    -0.74900
O404        O  0.52192296  0.77048061  0.82445688    -0.74300
O405        O  0.53329846  0.71778600  0.77232053    -0.75000
O406        O  0.52366843  0.79338497  0.79843548    -0.74400
O407        O  0.53098189  0.72527423  0.80625576    -0.74900
O408        O  0.48556287  0.73217137  0.82699882    -0.74800
O409        O  0.46011204  0.72890103  0.80341387    -0.74600
C410        C  0.47174899  0.72521707  0.73935206     0.77200
C411        C  0.52363107  0.77864368  0.73758093     0.77700
C412        C  0.45639024  0.79402005  0.78730976     0.76600
C413        C  0.52918999  0.78721503  0.81655590     0.77000
C414        C  0.53919192  0.71514527  0.79121973     0.78100
C415        C  0.46792326  0.72497539  0.82128307     0.77200
Zn416      Zn  0.28583332  0.01449414  0.27544082     1.49700
Zn417      Zn  0.26857244  0.02203739  0.22997146     1.49400
Zn418      Zn  0.31697653  0.01122991  0.23948052     1.49100
Zn419      Zn  0.28288005  0.97629718  0.24524300     1.49500
O420        O  0.28833954  0.00597881  0.24691204    -1.84100
O421        O  0.25703980  0.02555144  0.28066122    -0.74700
O422        O  0.28426686  0.04104143  0.20902472    -0.74500
O423        O  0.33345952  0.02560323  0.26255136    -0.74000
O424        O  0.24890297  0.03852622  0.24934009    -0.74700
O425        O  0.30693687  0.03694596  0.28190112    -0.74300
O426        O  0.31686127  0.03144146  0.21604404    -0.74900
O427        O  0.30511017  0.96231285  0.22754481    -0.74300
O428        O  0.24938158  0.00164682  0.21463752    -0.75000
O429        O  0.33099188  0.98535815  0.22828716    -0.74400
O430        O  0.25471075  0.97162558  0.23155693    -0.74900
O431        O  0.28561435  0.96267315  0.27383310    -0.74800
O432        O  0.29190985  0.99004794  0.29421747    -0.74600
C433        C  0.24504794  0.03613492  0.26882573     0.77200
C434        C  0.30390343  0.04225080  0.20555081     0.77700
C435        C  0.32610788  0.03758208  0.27669353     0.76600
C436        C  0.32377802  0.96755848  0.22309755     0.77000
C437        C  0.24439361  0.98273048  0.21854972     0.78100
C438        C  0.29090611  0.97037019  0.29146841     0.77200
Zn439      Zn  0.25653423  0.78712329  0.96725953     1.49700
Zn440      Zn  0.26776912  0.76640768  0.01114701     1.49400
Zn441      Zn  0.25954149  0.81571828  0.00704166     1.49100
Zn442      Zn  0.22232759  0.78413576  0.00186517     1.49500
O443        O  0.25174613  0.78828246  0.99705607    -1.84100
O444        O  0.26860779  0.75913706  0.95889991    -0.74700
O445        O  0.29069657  0.77856054  0.03004114    -0.74500
O446        O  0.27157536  0.83365699  0.98372375    -0.74000
O447        O  0.28019062  0.74711055  0.98941371    -0.74700
O448        O  0.27702286  0.80929632  0.95938459    -0.74300
O449        O  0.28245319  0.81223025  0.02761083    -0.74900
O450        O  0.21188532  0.80490245  0.02313951    -0.74300
O451        O  0.24815191  0.74796938  0.02797786    -0.75000
O452        O  0.23622918  0.82955179  0.02352786    -0.74400
O453        O  0.21742537  0.75537366  0.01330950    -0.74900
O454        O  0.20547330  0.78935617  0.97571503    -0.74800
O455        O  0.22982181  0.79364562  0.95140894    -0.74600
C456        C  0.27834254  0.74542381  0.96960452     0.77200
C457        C  0.29348095  0.79759220  0.03523604     0.77700
C458        C  0.27977499  0.82761598  0.96655758     0.76600
C459        C  0.21867231  0.82243899  0.02960841     0.77000
C460        C  0.22885457  0.74403533  0.02503427     0.78100
C461        C  0.21073342  0.79391310  0.95705530     0.77200
C462        C  0.36768850  0.90296428  0.85987852    -0.02400
C463        C  0.63442474  0.87290550  0.89625135    -0.02400
C464        C  0.40076509  0.86979905  0.12491437    -0.02400
C465        C  0.36855697  0.13878562  0.09737242    -0.02400
C466        C  0.60721138  0.14511348  0.86546723    -0.02400
C467        C  0.63304155  0.10335003  0.13334814    -0.02400
Zn468      Zn  0.50659901  0.00450247  0.96394858     1.49700
Zn469      Zn  0.46994989  0.00331437  0.99652045     1.49400
Zn470      Zn  0.51614472  0.98986539  0.01192890     1.49100
Zn471      Zn  0.50548445  0.03755066  0.00118825     1.49500
O472        O  0.49970345  0.00870213  0.99349377    -1.84100
O473        O  0.48231634  0.99374329  0.94679256    -0.74700
O474        O  0.46553427  0.98032693  0.01704302    -0.74500
O475        O  0.53572163  0.97205091  0.99436651    -0.74000
O476        O  0.45634881  0.99384215  0.96968993    -0.74700
O477        O  0.52800870  0.98213246  0.96190358    -0.74300
O478        O  0.49693542  0.97022739  0.02776137    -0.74900
O479        O  0.52679574  0.03872105  0.02422954    -0.74300
O480        O  0.45467054  0.02852291  0.00702315    -0.75000
O481        O  0.53396756  0.00590791  0.03302517    -0.74400
O482        O  0.47921639  0.05273586  0.01020269    -0.74900
O483        O  0.51844548  0.05310782  0.97725380    -0.74800
O484        O  0.51849044  0.03065151  0.95075641    -0.74600
C485        C  0.46335058  0.99015212  0.95143109     0.77200
C486        C  0.47711431  0.96848634  0.02803844     0.77700
C487        C  0.53805948  0.97065802  0.97461770     0.76600
C488        C  0.53678467  0.02547182  0.03519703     0.77000
C489        C  0.46024306  0.04698601  0.01174508     0.78100
C490        C  0.52274145  0.04854657  0.95835323     0.77200
Zn491      Zn  0.99635008  0.78798726  0.21993462     1.49700
Zn492      Zn  0.99371588  0.75170326  0.18808251     1.49400
Zn493      Zn  0.03232637  0.75510711  0.21773574     1.49100
Zn494      Zn  0.98785351  0.74255143  0.23787560     1.49500
O495        O  0.00236298  0.75891485  0.21620933    -1.84100
O496        O  0.97425135  0.79760046  0.19992642    -0.74700
O497        O  0.01748319  0.74080118  0.17004138    -0.74500
O498        O  0.04777215  0.78256904  0.21261284    -0.74000
O499        O  0.97624431  0.77425244  0.17432735    -0.74700
O500        O  0.02156656  0.80526125  0.21335893    -0.74300
O501        O  0.04143512  0.73576347  0.19475523    -0.74900
O502        O  0.00977351  0.72785895  0.25571519    -0.74300
O503        O  0.97448886  0.72800929  0.19057104    -0.75000
O504        O  0.04005959  0.74105334  0.24487608    -0.74400
O505        O  0.96818752  0.72070580  0.22394224    -0.74900
O506        O  0.97274728  0.76230877  0.25861212    -0.74800
O507        O  0.98563987  0.79301466  0.24883603    -0.74600
C508        C  0.96866341  0.79099743  0.18200966     0.77200
C509        C  0.03470989  0.73299350  0.17623956     0.77700
C510        C  0.04077286  0.80109875  0.21034276     0.76600
C511        C  0.02954959  0.72973867  0.25747282     0.77000
C512        C  0.96528612  0.71721556  0.20440812     0.78100
C513        C  0.97533108  0.78188910  0.26171606     0.77200
Zn514      Zn  0.76781144  0.24096166  0.01649766     1.49700
Zn515      Zn  0.72340706  0.22384531  0.00347529     1.49400
Zn516      Zn  0.75887624  0.22296225  0.97041671     1.49100
Zn517      Zn  0.75959419  0.19153327  0.00695813     1.49500
O518        O  0.75279403  0.22004067  0.99965133    -1.84100
O519        O  0.74702753  0.26157159  0.03044867    -0.74700
O520        O  0.70751999  0.21912686  0.97671123    -0.74500
O521        O  0.77120635  0.25131217  0.96552508    -0.74000
O522        O  0.71745814  0.25212470  0.01497631    -0.74700
O523        O  0.78470917  0.25912322  0.99678009    -0.74300
O524        O  0.73280162  0.21778351  0.95297927    -0.74900
O525        O  0.77290049  0.17509090  0.98287228    -0.74300
O526        O  0.71321016  0.20318428  0.02443324    -0.75000
O527        O  0.78014377  0.20145641  0.96149919    -0.74400
O528        O  0.73549094  0.17676966  0.02131454    -0.74900
O529        O  0.78119873  0.19332498  0.02899576    -0.74800
O530        O  0.78735145  0.22637041  0.03773979    -0.74600
C531        C  0.72769521  0.26472268  0.02646460     0.77200
C532        C  0.71355710  0.21642312  0.95792109     0.77700
C533        C  0.78250981  0.26277371  0.97726905     0.76600
C534        C  0.78237021  0.18247421  0.96695543     0.77000
C535        C  0.71901075  0.18477816  0.02917291     0.78100
C536        C  0.79067039  0.20680724  0.04009620     0.77200
Zn537      Zn  0.18492992  0.01085737  0.75811750     1.49700
Zn538      Zn  0.21714948  0.00832285  0.72165193     1.49400
Zn539      Zn  0.23405384  0.01874132  0.76597565     1.49100
Zn540      Zn  0.21539386  0.97325782  0.75469008     1.49500
O541        O  0.21304731  0.00293511  0.75065850    -1.84100
O542        O  0.17138365  0.02838498  0.73536550    -0.74700
O543        O  0.24620060  0.01857579  0.71588507    -0.74500
O544        O  0.22017910  0.03707486  0.78898004    -0.74000
O545        O  0.19781031  0.03105037  0.71304989    -0.74700
O546        O  0.18685976  0.02974091  0.78279535    -0.74300
O547        O  0.25145898  0.03626738  0.74544581    -0.74900
O548        O  0.24376326  0.96669253  0.76651877    -0.74300
O549        O  0.20928270  0.98327831  0.70466062    -0.75000
O550        O  0.25445335  0.99763199  0.77843548    -0.74400
O551        O  0.20877946  0.95737575  0.72768030    -0.74900
O552        O  0.19378615  0.96434128  0.77558329    -0.74800
O553        O  0.16767272  0.98607771  0.76810134    -0.74600
C554        C  0.17978215  0.03662089  0.71926809     0.77200
C555        C  0.25627880  0.03207259  0.72647995     0.77700
C556        C  0.20078301  0.03916227  0.79338665     0.76600
C557        C  0.25694806  0.97790637  0.77641102     0.77000
C558        C  0.20594731  0.96421617  0.70914719     0.78100
C559        C  0.17477561  0.96989836  0.77732626     0.77200
C560        C  0.13514675  0.13578136  0.90207399    -0.02400
C561        C  0.13415273  0.90539292  0.13557612    -0.02400
C562        C  0.89884037  0.14131915  0.13556336    -0.02400
C563        C  0.86177269  0.87645707  0.10292763    -0.02400
C564        C  0.10006530  0.86651335  0.86998020    -0.02400
C565        C  0.86926411  0.10494400  0.85984156    -0.02400
Zn566      Zn  0.02870983  0.99895887  0.99580146     1.49700
Zn567      Zn  0.98132804  0.98844822  0.98203048     1.49400
Zn568      Zn  0.99343421  0.00015382  0.02984110     1.49100
Zn569      Zn  0.99559064  0.03554921  0.99447753     1.49500
O570        O  0.99948222  0.00571527  0.00038273    -1.84100
O571        O  0.03146098  0.97589186  0.97532054    -0.74700
O572        O  0.96097254  0.97101507  0.99979924    -0.74500
O573        O  0.01879668  0.99082309  0.04659511    -0.74000
O574        O  0.99938935  0.96811705  0.96451687    -0.74700
O575        O  0.04265621  0.98863969  0.02166236    -0.74300
O576        O  0.97213804  0.97735866  0.03219458    -0.74900
O577        O  0.98226651  0.05058522  0.01912560    -0.74300
O578        O  0.96468199  0.00713465  0.96200995    -0.75000
O579        O  0.98106360  0.02565112  0.04324165    -0.74400
O580        O  0.97679018  0.03892139  0.96923505    -0.74900
O581        O  0.02296714  0.04989518  0.98783925    -0.74800
O582        O  0.04534816  0.02352900  0.98589574    -0.74600
C583        C  0.01910728  0.96502231  0.96425356     0.77200
C584        C  0.96018860  0.96780141  0.01950900     0.77700
C585        C  0.03721431  0.98629502  0.04061373     0.76600
C586        C  0.97740819  0.04431009  0.03740366     0.77000
C587        C  0.96530357  0.02674173  0.95844639     0.78100
C588        C  0.04123890  0.04288609  0.98421701     0.77200
Zn589      Zn  0.21605184  0.28904196  0.99992603     1.49700
Zn590      Zn  0.26077913  0.26872923  0.99012365     1.49400
Zn591      Zn  0.25514712  0.31876585  0.99830876     1.49100
Zn592      Zn  0.24966138  0.28770926  0.03602804     1.49500
O593        O  0.24567344  0.29082703  0.00592916    -1.84100
O594        O  0.20931728  0.26234708  0.98490152    -0.74700
O595        O  0.28284774  0.28183229  0.96993167    -0.74500
O596        O  0.23294537  0.33534461  0.98275004    -0.74000
O597        O  0.24002815  0.24938795  0.97503210    -0.74700
O598        O  0.20678987  0.31271260  0.98157278    -0.74300
O599        O  0.27826370  0.31517635  0.97838440    -0.74900
O600        O  0.26704939  0.31104513  0.04744774    -0.74300
O601        O  0.27566347  0.24984319  0.01096701    -0.75000
O602        O  0.26816570  0.33502652  0.02252418    -0.74400
O603        O  0.26561811  0.26142099  0.04234637    -0.74900
O604        O  0.22234101  0.28939947  0.05190648    -0.74800
O605        O  0.19909580  0.29136949  0.02626841    -0.74600
C606        C  0.22009562  0.24855441  0.97538613     0.77200
C607        C  0.28794801  0.30108520  0.96828482     0.77700
C608        C  0.21475718  0.33017751  0.97654141     0.76600
C609        C  0.27276272  0.32888659  0.04092634     0.77000
C610        C  0.27567717  0.24859563  0.03089169     0.78100
C611        C  0.20358356  0.29165972  0.04567398     0.77200
Zn612      Zn  0.77869230  0.50605843  0.78147327     1.49700
Zn613      Zn  0.76326417  0.51712768  0.73588541     1.49400
Zn614      Zn  0.81177357  0.50935358  0.74509145     1.49100
Zn615      Zn  0.78042015  0.47148543  0.74784313     1.49500
O616        O  0.78356119  0.50112790  0.75216013    -1.84100
O617        O  0.75020469  0.51788927  0.78600087    -0.74700
O618        O  0.77742569  0.53580698  0.71378200    -0.74500
O619        O  0.82459108  0.52731703  0.76818882    -0.74000
O620        O  0.74488150  0.53426402  0.75567346    -0.74700
O621        O  0.79885330  0.52748763  0.79156346    -0.74300
O622        O  0.81047372  0.52840905  0.72085865    -0.74900
O623        O  0.80363743  0.46128698  0.72967539    -0.74300
O624        O  0.74408920  0.49660293  0.72130445    -0.75000
O625        O  0.82896253  0.48459066  0.73434794    -0.74400
O626        O  0.75285962  0.46521261  0.73357399    -0.74900
O627        O  0.78475381  0.45552995  0.77478713    -0.74800
O628        O  0.78354330  0.48037823  0.79897398    -0.74600
C629        C  0.74010120  0.53082114  0.77476338     0.77200
C630        C  0.79688444  0.53796132  0.71001432     0.77700
C631        C  0.81644271  0.53405688  0.78514874     0.76600
C632        C  0.82242427  0.46718473  0.72707144     0.77000
C633        C  0.74104992  0.47694602  0.72256650     0.78100
C634        C  0.78641089  0.46142322  0.79375018     0.77200
Zn635      Zn  0.99173723  0.28695239  0.78780458     1.49700
Zn636      Zn  0.98842796  0.24532195  0.81468657     1.49400
Zn637      Zn  0.98345612  0.24333846  0.76419901     1.49100
Zn638      Zn  0.02734032  0.25369936  0.78511339     1.49500
O639        O  0.99745472  0.25711730  0.78789026    -1.84100
O640        O  0.97132447  0.29375219  0.81064287    -0.74700
O641        O  0.96560680  0.22466161  0.80918098    -0.74500
O642        O  0.96907530  0.26530096  0.74582937    -0.74000
O643        O  0.97470010  0.26738842  0.83313094    -0.74700
O644        O  0.97878709  0.29532034  0.76039767    -0.74300
O645        O  0.96222140  0.22159079  0.77462650    -0.74900
O646        O  0.03529426  0.24199421  0.75688127    -0.74300
O647        O  0.01211970  0.22936640  0.82937980    -0.75000
O648        O  0.00512737  0.22916522  0.74551214    -0.74400
O649        O  0.03757440  0.23327691  0.80618017    -0.74900
O650        O  0.04267423  0.28024643  0.79201091    -0.74800
O651        O  0.01772727  0.30423043  0.79385731    -0.74600
C652        C  0.96721837  0.28515033  0.82809242     0.77200
C653        C  0.95692417  0.21654993  0.79322274     0.77700
C654        C  0.96971664  0.28524401  0.74578336     0.76600
C655        C  0.02488540  0.23118868  0.74377096     0.77000
C656        C  0.03065301  0.22548040  0.82308457     0.78100
C657        C  0.03682430  0.29891294  0.79561070     0.77200
C658        C  0.86296738  0.37681190  0.90363772    -0.02400
C659        C  0.13071771  0.40562930  0.86544614    -0.02400
C660        C  0.89282894  0.64209542  0.87128480    -0.02400
C661        C  0.09888691  0.36887356  0.13198510    -0.02400
C662        C  0.86726376  0.61050937  0.13992715    -0.02400
C663        C  0.13998292  0.64104382  0.10293249    -0.02400
Zn664      Zn  0.99560069  0.53951199  0.00851267     1.49700
Zn665      Zn  0.02980836  0.50354771  0.00681507     1.49400
Zn666      Zn  0.98220293  0.49172070  0.02101068     1.49100
Zn667      Zn  0.99391179  0.50486331  0.97369711     1.49500
O668        O  0.00020041  0.50977912  0.00287964    -1.84100
O669        O  0.02173984  0.55351229  0.01943464    -0.74700
O670        O  0.03220074  0.47933183  0.02616611    -0.74500
O671        O  0.96579050  0.51005920  0.04192897    -0.74000
O672        O  0.04501654  0.52776000  0.02014941    -0.74700
O673        O  0.97381941  0.54199721  0.03074066    -0.74300
O674        O  0.00047385  0.47053458  0.03711738    -0.74900
O675        O  0.97056091  0.48496461  0.97100929    -0.74300
O676        O  0.04463253  0.49459541  0.97998123    -0.75000
O677        O  0.96077069  0.47537180  0.00283981    -0.74400
O678        O  0.01801256  0.49261338  0.95795313    -0.74900
O679        O  0.98430518  0.53074590  0.95918580    -0.74800
O680        O  0.98472188  0.55558819  0.98328710    -0.74600
C681        C  0.03988290  0.54662976  0.02385530     0.77200
C682        C  0.02024031  0.46772049  0.03695850     0.77700
C683        C  0.96365937  0.52988941  0.04278045     0.76600
C684        C  0.95864102  0.47457577  0.98294399     0.77000
C685        C  0.03720954  0.48977220  0.96212605     0.78100
C686        C  0.98084908  0.54950829  0.96471231     0.77200
Zn687      Zn  0.49365913  0.79120791  0.27933443     1.49700
Zn688      Zn  0.49177064  0.75404633  0.31059902     1.49400
Zn689      Zn  0.48282731  0.74614646  0.26172675     1.49100
Zn690      Zn  0.52850387  0.75805151  0.27761477     1.49500
O691        O  0.49894451  0.76193515  0.28230791    -1.84100
O692        O  0.47266726  0.80062914  0.30022900    -0.74700
O693        O  0.47156769  0.73060840  0.30906815    -0.74500
O694        O  0.46863577  0.76651141  0.24148099    -0.74000
O695        O  0.47576111  0.77718235  0.32568060    -0.74700
O696        O  0.48255279  0.79696711  0.25083095    -0.74300
O697        O  0.46262275  0.72539054  0.27591920    -0.74900
O698        O  0.53374555  0.74447000  0.24936038    -0.74300
O699        O  0.51705634  0.74213551  0.32597664    -0.75000
O700        O  0.50283446  0.72961657  0.24364284    -0.74400
O701        O  0.53917554  0.73829615  0.29927571    -0.74900
O702        O  0.54479533  0.78493521  0.28267378    -0.74800
O703        O  0.51921179  0.80807132  0.28549188    -0.74600
C704        C  0.46806260  0.79409134  0.31842073     0.77200
C705        C  0.46099319  0.72088354  0.29534263     0.77700
C706        C  0.47182490  0.78594874  0.23820306     0.76600
C707        C  0.52210078  0.73188027  0.23917141     0.77000
C708        C  0.53385076  0.73476042  0.31810519     0.78100
C709        C  0.53847160  0.80340525  0.28670816     0.77200
Zn710      Zn  0.48468420  0.24314582  0.74045353     1.49700
Zn711      Zn  0.49089585  0.28704957  0.71735549     1.49400
Zn712      Zn  0.52813599  0.25616511  0.72011851     1.49100
Zn713      Zn  0.49015499  0.24636104  0.68960010     1.49500
O714        O  0.49821418  0.25778347  0.71696017    -1.84100
O715        O  0.46939058  0.26419376  0.75931892    -0.74700
O716        O  0.51556418  0.30588877  0.71073326    -0.74500
O717        O  0.53621455  0.24417061  0.74808200    -0.74000
O718        O  0.47781712  0.29453997  0.74470313    -0.74700
O719        O  0.50671359  0.22970138  0.75919735    -0.74300
O720        O  0.54195823  0.28368852  0.71408171    -0.74900
O721        O  0.51533069  0.23318110  0.67447938    -0.74300
O722        O  0.46913748  0.29234261  0.69568083    -0.75000
O723        O  0.54004398  0.23726229  0.69849255    -0.74400
O724        O  0.47389425  0.26757196  0.67181595    -0.74900
O725        O  0.46900586  0.22387290  0.69459301    -0.74800
O726        O  0.46430257  0.22094557  0.72905976    -0.74600
C727        C  0.46902826  0.28413613  0.75920585     0.77200
C728        C  0.53500494  0.30179206  0.70970248     0.77700
C729        C  0.52632207  0.23275900  0.76105309     0.76600
C730        C  0.53398172  0.23013722  0.68095166     0.77000
C731        C  0.46471442  0.28414932  0.67809548     0.78100
C732        C  0.45997385  0.21560582  0.71026076     0.77200
Zn733      Zn  0.73844806  0.98660259  0.76310469     1.49700
Zn734      Zn  0.71789237  0.99569832  0.71843326     1.49400
Zn735      Zn  0.68828033  0.99462277  0.75634817     1.49100
Zn736      Zn  0.71900659  0.03141419  0.75155233     1.49500
O737        O  0.71630765  0.00182590  0.74779231    -1.84100
O738        O  0.75793840  0.97213592  0.74180142    -0.74700
O739        O  0.69743699  0.97304840  0.71146112    -0.74500
O740        O  0.69185204  0.97410056  0.77869882    -0.74000
O741        O  0.74630090  0.98490066  0.71157224    -0.74700
O742        O  0.72504347  0.96577935  0.78450524    -0.74300
O743        O  0.67204816  0.97831370  0.73445909    -0.74900
O744        O  0.69792565  0.04178670  0.77228726    -0.74300
O745        O  0.71072925  0.02112438  0.70095395    -0.75000
O746        O  0.67213468  0.01882819  0.76925893    -0.74400
O747        O  0.71230016  0.04661834  0.72452199    -0.74900
O748        O  0.74716444  0.03808566  0.76366781    -0.74800
O749        O  0.75749309  0.00794198  0.77770510    -0.74600
C750        C  0.75989820  0.97479929  0.72204186     0.77200
C751        C  0.67937917  0.96876685  0.71855632     0.77700
C752        C  0.70554024  0.96341426  0.78828739     0.76600
C753        C  0.67945507  0.03588703  0.77639805     0.77000
C754        C  0.70870405  0.04029644  0.70593085     0.78100
C755        C  0.75979879  0.02759829  0.77500788     0.77200
C756        C  0.36483420  0.11009477  0.64249718    -0.02400
C757        C  0.60009484  0.86502401  0.63063476    -0.02400
C758        C  0.63542260  0.13629121  0.60223520    -0.02400
C759        C  0.35936846  0.87606137  0.39932672    -0.02400
C760        C  0.63009052  0.90453992  0.36752271    -0.02400
C761        C  0.40273475  0.14256020  0.36629783    -0.02400
Zn762      Zn  0.46554941  0.01156143  0.49984093     1.49700
Zn763      Zn  0.51374608  0.02197496  0.48598145     1.49400
Zn764      Zn  0.50116642  0.01039707  0.53375753     1.49100
Zn765      Zn  0.49901349  0.97538837  0.49934655     1.49500
O766        O  0.49501811  0.00507543  0.50446827    -1.84100
O767        O  0.46385056  0.03380761  0.47807434    -0.74700
O768        O  0.53356483  0.04017118  0.50375001    -0.74500
O769        O  0.47662639  0.02233340  0.54954142    -0.74000
O770        O  0.49602895  0.04163594  0.46770291    -0.74700
O771        O  0.45135405  0.02289439  0.52582437    -0.74300
O772        O  0.52332706  0.03164225  0.53575906    -0.74900
O773        O  0.50997718  0.95991839  0.52443221    -0.74300
O774        O  0.53154067  0.00263856  0.46704704    -0.75000
O775        O  0.51259600  0.98492356  0.54828611    -0.74400
O776        O  0.52046615  0.97146897  0.47728636    -0.74900
O777        O  0.47288096  0.96153970  0.48916302    -0.74800
O778        O  0.44906511  0.98668340  0.48935264    -0.74600
C779        C  0.47628055  0.04437729  0.46672336     0.77200
C780        C  0.53497413  0.04209406  0.52360508     0.77700
C781        C  0.45797029  0.02665790  0.54423247     0.76600
C782        C  0.51536933  0.96607939  0.54255455     0.77000
C783        C  0.53219647  0.98271201  0.46591011     0.78100
C784        C  0.45435247  0.96784923  0.48573804     0.77200
C785        C  0.41540741  0.13129225  0.38372931    -0.01200
C786        C  0.43702566  0.13377276  0.38710138    -0.09300
C787        C  0.44790319  0.12074744  0.40098236    -0.18100
C788        C  0.43744034  0.10520941  0.41261676     0.04300
C789        C  0.41535853  0.10435736  0.41091475     0.18500
C790        C  0.40472994  0.11730219  0.39685498    -0.19500
C791        C  0.40390300  0.09016344  0.42283493    -0.20800
C792        C  0.41393630  0.07636753  0.43614423    -0.19300
C793        C  0.43570177  0.07616859  0.43759319     0.19900
C794        C  0.44789650  0.09050032  0.42589010     0.02000
C795        C  0.46990664  0.08902963  0.42768310    -0.14100
C796        C  0.47927108  0.07403138  0.44070372    -0.11800
C797        C  0.46701869  0.06014898  0.45237425     0.01500
C798        C  0.44524240  0.06145042  0.45062823    -0.23900
H799        H  0.44586971  0.14551944  0.37890870     0.09500
H800        H  0.46449230  0.12318217  0.40232286     0.13100
H801        H  0.38796783  0.11568362  0.39520059     0.11800
H802        H  0.38703569  0.08959307  0.42172071     0.13000
H803        H  0.40459015  0.06549334  0.44510378     0.12100
H804        H  0.48023154  0.09907896  0.41901248     0.09100
H805        H  0.49612677  0.07337048  0.44168912     0.12400
H806        H  0.43547704  0.05078835  0.45940242     0.14300
C807        C  0.61491353  0.91710176  0.38179486    -0.01200
C808        C  0.60355439  0.90612508  0.39708040    -0.09300
C809        C  0.59003330  0.91621012  0.41080704    -0.18100
C810        C  0.58701007  0.93800612  0.40991474     0.04300
C811        C  0.59768522  0.94921852  0.39405805     0.18500
C812        C  0.61094202  0.93871518  0.37987742    -0.19500
C813        C  0.59507982  0.97088759  0.39249067    -0.20800
C814        C  0.58220457  0.98164989  0.40641679    -0.19300
C815        C  0.57136291  0.97101799  0.42214886     0.19900
C816        C  0.57359964  0.94899936  0.42404630     0.02000
C817        C  0.56226920  0.93889018  0.44000633    -0.14100
C818        C  0.54915693  0.95003543  0.45329917    -0.11800
C819        C  0.54679147  0.97173866  0.45146650     0.01500
C820        C  0.55814945  0.98219870  0.43589954    -0.23900
H821        H  0.60513244  0.88936935  0.39846349     0.09500
H822        H  0.58225629  0.90637596  0.42198153     0.13100
H823        H  0.61782564  0.94754854  0.36726564     0.11800
H824        H  0.60318543  0.97961973  0.38048318     0.13000
H825        H  0.58063824  0.99841233  0.40479623     0.12100
H826        H  0.56306112  0.92232602  0.44266914     0.09100
H827        H  0.54079781  0.94142052  0.46520535     0.12400
H828        H  0.55650161  0.99895823  0.43428084     0.14300
C829        C  0.37272298  0.88828956  0.41560090    -0.01200
C830        C  0.36337573  0.90296699  0.42911349    -0.09300
C831        C  0.37545316  0.91539904  0.44247781    -0.18100
C832        C  0.39733482  0.91276395  0.44368930     0.04300
C833        C  0.40629216  0.89592853  0.43239068     0.18500
C834        C  0.39409253  0.88392259  0.41882122    -0.19500
C835        C  0.42754934  0.89131595  0.43432811    -0.20800
C836        C  0.44038000  0.90370234  0.44658018    -0.19300
C837        C  0.43235878  0.92128741  0.45676824     0.19900
C838        C  0.41071905  0.92611667  0.45557985     0.02000
C839        C  0.40369850  0.94458342  0.46552245    -0.14100
C840        C  0.41772772  0.95792779  0.47567372    -0.11800
C841        C  0.43906213  0.95309943  0.47659370     0.01500
C842        C  0.44610238  0.93447086  0.46750184    -0.23900
H843        H  0.34668212  0.90556586  0.42848700     0.09500
H844        H  0.36727962  0.92691275  0.45168799     0.13100
H845        H  0.40159292  0.87102967  0.41087976     0.11800
H846        H  0.43439019  0.87823023  0.42601409     0.13000
H847        H  0.45684227  0.89989942  0.44750892     0.12100
H848        H  0.38760203  0.94948443  0.46503030     0.09100
H849        H  0.41187792  0.97223224  0.48257702     0.12400
H850        H  0.46258105  0.93061447  0.46793833     0.14300
C851        C  0.55034625  0.05641220  0.53344894    -0.01200
C852        C  0.56461504  0.06812413  0.52172889    -0.09300
C853        C  0.57936753  0.08089680  0.53173185    -0.18100
C854        C  0.58028403  0.08226102  0.55386299     0.04300
C855        C  0.56541108  0.07068355  0.56551129     0.18500
C856        C  0.55082779  0.05805417  0.55533823    -0.19500
C857        C  0.56511771  0.07162580  0.58736177    -0.20800
C858        C  0.57929438  0.08394092  0.59804398    -0.19300
C859        C  0.59422584  0.09547783  0.58715105     0.19900
C860        C  0.59518645  0.09471548  0.56496248     0.02000
C861        C  0.61113762  0.10627027  0.55503758    -0.14100
C862        C  0.62479508  0.11888005  0.56661277    -0.11800
C863        C  0.62272015  0.12087311  0.58848456     0.01500
C864        C  0.60796094  0.10807985  0.59849487    -0.23900
H865        H  0.56448201  0.06731971  0.50480772     0.09500
H866        H  0.58981622  0.08953971  0.52178332     0.13100
H867        H  0.53980645  0.04929913  0.56471978     0.11800
H868        H  0.55376223  0.06282533  0.59627920     0.13000
H869        H  0.57853944  0.08447454  0.61497798     0.12100
H870        H  0.61345615  0.10582475  0.53833952     0.09100
H871        H  0.63682744  0.12706781  0.55814845     0.12400
H872        H  0.60650117  0.10881493  0.61538579     0.14300
C873        C  0.58714100  0.88095406  0.61761471    -0.01200
C874        C  0.59060422  0.90267179  0.61895130    -0.09300
C875        C  0.57896637  0.91680449  0.60730602    -0.18100
C876        C  0.56354981  0.90997125  0.59321199     0.04300
C877        C  0.56115839  0.88813961  0.59026714     0.18500
C878        C  0.57297922  0.87394936  0.60224784    -0.19500
C879        C  0.54705206  0.88066489  0.57530997    -0.20800
C880        C  0.53535513  0.89446509  0.56319414    -0.19300
C881        C  0.53706390  0.91606800  0.56612788     0.19900
C882        C  0.55087628  0.92409554  0.58152345     0.02000
C883        C  0.55124590  0.94592790  0.58475118    -0.14100
C884        C  0.53908603  0.95926865  0.57260507    -0.11800
C885        C  0.52623276  0.95142755  0.55675194     0.01500
C886        C  0.52513620  0.92974778  0.55371379    -0.23900
H887        H  0.60278456  0.90918896  0.62860819     0.09500
H888        H  0.58287318  0.93302939  0.60930138     0.13100
H889        H  0.57096980  0.85731535  0.59989345     0.11800
H890        H  0.54518416  0.86404001  0.57283379     0.13000
H891        H  0.52476725  0.88819113  0.55157267     0.12100
H892        H  0.56063113  0.95321840  0.59666421     0.09100
H893        H  0.54022863  0.97592329  0.57529566     0.12400
H894        H  0.51506094  0.92351327  0.54160945     0.14300
C895        C  0.37951609  0.09585137  0.62924118    -0.01200
C896        C  0.37052462  0.08055765  0.61615443    -0.09300
C897        C  0.38253867  0.06839258  0.60260548    -0.18100
C898        C  0.40435156  0.07094704  0.60136602     0.04300
C899        C  0.41367373  0.08607436  0.61465641     0.18500
C900        C  0.40131571  0.09863957  0.62785267    -0.19500
C901        C  0.43535014  0.08875126  0.61458654    -0.20800
C902        C  0.44797824  0.07668103  0.60165265    -0.19300
C903        C  0.43922181  0.06208364  0.58794175     0.19900
C904        C  0.41724390  0.05919665  0.58732524     0.02000
C905        C  0.40916229  0.04507892  0.57231467    -0.14100
C906        C  0.42236580  0.03443895  0.55848970    -0.11800
C907        C  0.44402206  0.03705391  0.55950409     0.01500
C908        C  0.45233513  0.05072375  0.57445919    -0.23900
H909        H  0.35381646  0.07808867  0.61632697     0.09500
H910        H  0.37426051  0.05702012  0.59338310     0.13100
H911        H  0.40896600  0.11092513  0.63647546     0.11800
H912        H  0.44262836  0.10017345  0.62473930     0.13000
H913        H  0.46470953  0.07906633  0.60210116     0.12100
H914        H  0.39268509  0.04232035  0.57049980     0.09100
H915        H  0.41559493  0.02407743  0.54694726     0.12400
H916        H  0.46906640  0.05316330  0.57505209     0.14300
C917        C  0.64724906  0.12199519  0.61808030    -0.01200
C918        C  0.66139341  0.10689932  0.61043889    -0.09300
C919        C  0.67238940  0.09360858  0.62388359    -0.18100
C920        C  0.66958201  0.09463540  0.64578257     0.04300
C921        C  0.65491668  0.10938120  0.65356528     0.18500
C922        C  0.64359640  0.12226864  0.63984081    -0.19500
C923        C  0.65153342  0.11125228  0.67511637    -0.20800
C924        C  0.66254658  0.09894609  0.68917943    -0.19300
C925        C  0.67689260  0.08407012  0.68207003     0.19900
C926        C  0.68051688  0.08146784  0.66026641     0.02000
C927        C  0.69457983  0.06553388  0.65402926    -0.14100
C928        C  0.70412051  0.05247177  0.66881237    -0.11800
C929        C  0.70051298  0.05526220  0.69025591     0.01500
C930        C  0.68717290  0.07136820  0.69672516    -0.23900
H931        H  0.66415581  0.10561433  0.59376813     0.09500
H932        H  0.68311670  0.08281783  0.61666273     0.13100
H933        H  0.63169484  0.13219535  0.64647869     0.11800
H934        H  0.64038567  0.12247383  0.68118295     0.13000
H935        H  0.65959270  0.10088718  0.70576499     0.12100
H936        H  0.69809827  0.06244085  0.63783512     0.09100
H937        H  0.71426702  0.04003091  0.66344335     0.12400
H938        H  0.68394588  0.07336877  0.71326605     0.14300
C939        C  0.61254925  0.87659763  0.64804148    -0.01200
C940        C  0.60146918  0.88818634  0.66322646    -0.09300
C941        C  0.61165236  0.90168036  0.67698817    -0.18100
C942        C  0.63350561  0.90414041  0.67618718     0.04300
C943        C  0.64487906  0.89088068  0.66242818     0.18500
C944        C  0.63447161  0.87671338  0.64931157    -0.19500
C945        C  0.66658758  0.89250548  0.66103935    -0.20800
C946        C  0.67715816  0.90784196  0.67209500    -0.19300
C947        C  0.66633700  0.92167161  0.68513427     0.19900
C948        C  0.64444708  0.91966946  0.68795368     0.02000
C949        C  0.63451073  0.93370199  0.70194095    -0.14100
C950        C  0.64578192  0.94950087  0.71202151    -0.11800
C951        C  0.66719454  0.95194508  0.70834156     0.01500
C952        C  0.67735159  0.93771216  0.69512220    -0.23900
H953        H  0.58458101  0.88781898  0.66350378     0.09500
H954        H  0.60189895  0.91061957  0.68741481     0.13100
H955        H  0.64373054  0.86650912  0.63954959     0.11800
H956        H  0.67538815  0.88236464  0.65069430     0.13000
H957        H  0.69390399  0.90913406  0.67013087     0.12100
H958        H  0.61805832  0.93295671  0.70530843     0.09100
H959        H  0.63763085  0.96003577  0.72248012     0.12400
H960        H  0.69401999  0.93908014  0.69256225     0.14300
C961        C  0.44357011  0.20007301  0.70581714    -0.01200
C962        C  0.44603061  0.17905305  0.71117730    -0.09300
C963        C  0.43220992  0.16392504  0.70340557    -0.18100
C964        C  0.41541227  0.16952366  0.69007432     0.04300
C965        C  0.41243221  0.19111250  0.68580377     0.18500
C966        C  0.42652191  0.20600911  0.69350271    -0.19500
C967        C  0.39581497  0.19771569  0.67325330    -0.20800
C968        C  0.38255220  0.18329215  0.66402616    -0.19300
C969        C  0.38575141  0.16186770  0.66683833     0.19900
C970        C  0.40190134  0.15460939  0.68022091     0.02000
C971        C  0.40397083  0.13277863  0.68272545    -0.14100
C972        C  0.39155228  0.11887697  0.67124170    -0.11800
C973        C  0.37694852  0.12603784  0.65638223     0.01500
C974        C  0.37316851  0.14773148  0.65576377    -0.23900
H975        H  0.45924370  0.17419026  0.72056067     0.09500
H976        H  0.43535920  0.14794908  0.70763840     0.13100
H977        H  0.42462478  0.22231631  0.68934123     0.11800
H978        H  0.39331298  0.21416417  0.67018194     0.13000
H979        H  0.37011068  0.18894151  0.65402252     0.12100
H980        H  0.41535218  0.12597588  0.69310548     0.09100
H981        H  0.39401285  0.10227339  0.67327185     0.12400
H982        H  0.36051730  0.15398784  0.64650972     0.14300
C983        C  0.62041069  0.15218572  0.61311117    -0.01200
C984        C  0.62829229  0.16658821  0.62775917    -0.09300
C985        C  0.61511494  0.18036744  0.63848534    -0.18100
C986        C  0.59343289  0.18096229  0.63435845     0.04300
C987        C  0.58577071  0.16812885  0.61801771     0.18500
C988        C  0.59914480  0.15427718  0.60750842    -0.19500
C989        C  0.56469038  0.16903038  0.61228163    -0.20800
C990        C  0.55085841  0.18200450  0.62288192    -0.19300
C991        C  0.55767477  0.19420232  0.63968874     0.19900
C992        C  0.57908252  0.19387732  0.64567585     0.02000
C993        C  0.58505366  0.20605826  0.66307478    -0.14100
C994        C  0.57040733  0.21785567  0.67411821    -0.11800
C995        C  0.54928449  0.21812558  0.66824274     0.01500
C996        C  0.54310082  0.20641851  0.65079514    -0.23900
H997        H  0.64478470  0.16663546  0.63146278     0.09500
H998        H  0.62239600  0.19042640  0.64984822     0.13100
H999        H  0.59267079  0.14536364  0.59470962     0.11800
H1000       H  0.55878838  0.15944811  0.59962044     0.13000
H1001       H  0.53461936  0.18218502  0.61815156     0.12100
H1002       H  0.60084708  0.20644182  0.66883973     0.09100
H1003       H  0.57573245  0.22674621  0.68750754     0.12400
H1004       H  0.52683143  0.20638288  0.64614797     0.14300
C1005       C  0.55335259  0.81941909  0.29451517    -0.01200
C1006       C  0.57450187  0.81461365  0.29745157    -0.09300
C1007       C  0.58787279  0.82863620  0.30755609    -0.18100
C1008       C  0.58043072  0.84796450  0.31533761     0.04300
C1009       C  0.55904685  0.85287761  0.31208190     0.18500
C1010       C  0.54592203  0.83887015  0.30147840    -0.19500
C1011       C  0.55065435  0.87141863  0.32010410    -0.20800
C1012       C  0.56284110  0.88481697  0.33205274    -0.19300
C1013       C  0.58388058  0.88029658  0.33584411     0.19900
C1014       C  0.59317613  0.86224404  0.32688671     0.02000
C1015       C  0.61481782  0.85940624  0.32977241    -0.14100
C1016       C  0.62639685  0.87320753  0.34206546    -0.11800
C1017       C  0.61688638  0.88993171  0.35295158     0.01500
C1018       C  0.59558998  0.89375153  0.34865831    -0.23900
H1019       H  0.58065465  0.79964809  0.29249928     0.09500
H1020       H  0.60376207  0.82355734  0.30977018     0.13100
H1021       H  0.52956892  0.84278298  0.29954521     0.11800
H1022       H  0.53437435  0.87530475  0.31762544     0.13000
H1023       H  0.55569596  0.89874997  0.33851415     0.12100
H1024       H  0.62331600  0.84683063  0.32245938     0.09100
H1025       H  0.64304769  0.87061072  0.34342953     0.12400
H1026       H  0.58788088  0.90736294  0.35507827     0.14300
C1027       C  0.45302064  0.80637061  0.33084904    -0.01200
C1028       C  0.45227670  0.82808552  0.32861961    -0.09300
C1029       C  0.43693907  0.83985726  0.33867671    -0.18100
C1030       C  0.42141765  0.83015062  0.35099306     0.04300
C1031       C  0.42217307  0.80805134  0.35306430     0.18500
C1032       C  0.43812460  0.79645605  0.34336011    -0.19500
C1033       C  0.40675631  0.79761411  0.36444645    -0.20800
C1034       C  0.39062354  0.80864718  0.37393379    -0.19300
C1035       C  0.38977076  0.83044842  0.37271454     0.19900
C1036       C  0.40515682  0.84152339  0.36125316     0.02000
C1037       C  0.40366347  0.86349620  0.36071187    -0.14100
C1038       C  0.38839537  0.87400186  0.37214277    -0.11800
C1039       C  0.37387602  0.86319840  0.38463227     0.01500
C1040       C  0.37390746  0.84121928  0.38344090    -0.23900
H1041       H  0.46359947  0.83602641  0.31889710     0.09500
H1042       H  0.43745168  0.85645644  0.33613260     0.13100
H1043       H  0.43841329  0.77959354  0.34478996     0.11800
H1044       H  0.40711629  0.78077050  0.36594049     0.13000
H1045       H  0.37896084  0.80007754  0.38267220     0.12100
H1046       H  0.41446509  0.87312067  0.35218670     0.09100
H1047       H  0.38854189  0.89090494  0.37207426     0.12400
H1048       H  0.36205715  0.83216543  0.39125231     0.14300
C1049       C  0.12656375  0.62609267  0.08917995    -0.01200
C1050       C  0.11363238  0.63471508  0.07352921    -0.09300
C1051       C  0.09974390  0.62249382  0.06202910    -0.18100
C1052       C  0.09802403  0.60085224  0.06564932     0.04300
C1053       C  0.11124211  0.59189094  0.08105586     0.18500
C1054       C  0.12477531  0.60446029  0.09291611    -0.19500
C1055       C  0.11073231  0.57037040  0.08477749    -0.20800
C1056       C  0.09739617  0.55752826  0.07348169    -0.19300
C1057       C  0.08374425  0.56594714  0.05862902     0.19900
C1058       C  0.08358332  0.58778585  0.05470157     0.02000
C1059       C  0.06863446  0.59558459  0.04037633    -0.14100
C1060       C  0.05452518  0.58223478  0.03042193    -0.11800
C1061       C  0.05514764  0.56068758  0.03398417     0.01500
C1062       C  0.06993516  0.55264962  0.04798381    -0.23900
H1063       H  0.11411984  0.65130906  0.07035861     0.09500
H1064       H  0.09061426  0.63047121  0.05034936     0.13100
H1065       H  0.13329303  0.59709285  0.10545382     0.11800
H1066       H  0.12084035  0.56337544  0.09642943     0.13000
H1067       H  0.09750506  0.54091702  0.07665771     0.12100
H1068       H  0.06713928  0.61196310  0.03688065     0.09100
H1069       H  0.04313045  0.58879920  0.01976634     0.12400
H1070       H  0.07023632  0.53602387  0.05113567     0.14300
C1071       C  0.88044549  0.59687779  0.12467501    -0.01200
C1072       C  0.88125445  0.60140743  0.10311266    -0.09300
C1073       C  0.89402039  0.59027358  0.08952222    -0.18100
C1074       C  0.90716665  0.57417220  0.09677115     0.04300
C1075       C  0.90712081  0.56979840  0.11854180     0.18500
C1076       C  0.89417859  0.58134856  0.13224874    -0.19500
C1077       C  0.92010853  0.55402394  0.12643669    -0.20800
C1078       C  0.93302907  0.54247808  0.11313398    -0.19300
C1079       C  0.93348902  0.54653062  0.09158735     0.19900
C1080       C  0.92059460  0.56256815  0.08316938     0.02000
C1081       C  0.92185707  0.56651969  0.06146610    -0.14100
C1082       C  0.93558069  0.55544393  0.04878783    -0.11800
C1083       C  0.94829045  0.53970855  0.05697122     0.01500
C1084       C  0.94700607  0.53499912  0.07838514    -0.23900
H1085       H  0.87250747  0.61419202  0.09641659     0.09500
H1086       H  0.89334347  0.59498646  0.07338467     0.13100
H1087       H  0.89467631  0.57821489  0.14890026     0.11800
H1088       H  0.92024976  0.55055574  0.14302273     0.13000
H1089       H  0.94285361  0.53040332  0.11977636     0.12100
H1090       H  0.91270337  0.57828599  0.05370546     0.09100
H1091       H  0.93632443  0.55929635  0.03229521     0.12400
H1092       H  0.95703469  0.52299018  0.08485625     0.14300
C1093       C  0.03017787  0.45070028  0.04923303    -0.01200
C1094       C  0.05058601  0.44464309  0.04413271    -0.09300
C1095       C  0.06125865  0.42989507  0.05595965    -0.18100
C1096       C  0.05200869  0.42067505  0.07372380     0.04300
C1097       C  0.03099041  0.42605576  0.07845741     0.18500
C1098       C  0.02022400  0.44092610  0.06616968    -0.19500
C1099       C  0.02108550  0.41685487  0.09566773    -0.20800
C1100       C  0.03173868  0.40279304  0.10848824    -0.19300
C1101       C  0.05267846  0.39772995  0.10461727     0.19900
C1102       C  0.06304982  0.40663734  0.08712798     0.02000
C1103       C  0.08434133  0.40188143  0.08428892    -0.14100
C1104       C  0.09498158  0.38932860  0.09839396    -0.11800
C1105       C  0.08494693  0.38011903  0.11565625     0.01500
C1106       C  0.06353737  0.38445535  0.11854552    -0.23900
H1107       H  0.05855680  0.45147745  0.03086643     0.09500
H1108       H  0.07679967  0.42618798  0.05074764     0.13100
H1109       H  0.00437556  0.44532151  0.07016984     0.11800
H1110       H  0.00503923  0.42072824  0.09937930     0.13000
H1111       H  0.02365049  0.39615766  0.12178994     0.12100
H1112       H  0.09357060  0.40823587  0.07177074     0.09100
H1113       H  0.11157199  0.38706863  0.09602099     0.12400
H1114       H  0.05551146  0.37860387  0.13221402     0.14300
C1115       C  0.90829996  0.62807956  0.88384049    -0.01200
C1116       C  0.91146417  0.60686633  0.87879551    -0.09300
C1117       C  0.92485298  0.59428808  0.89038314    -0.18100
C1118       C  0.93579929  0.60224435  0.90776334     0.04300
C1119       C  0.93352109  0.62377561  0.91247313     0.18500
C1120       C  0.92096756  0.63663955  0.89975156    -0.19500
C1121       C  0.94316603  0.63211507  0.93028692    -0.20800
C1122       C  0.95440272  0.61931207  0.94388309    -0.19300
C1123       C  0.95705447  0.59803276  0.93951579     0.19900
C1124       C  0.94843857  0.58942574  0.92092970     0.02000
C1125       C  0.95265848  0.56826592  0.91639800    -0.14100
C1126       C  0.96381963  0.55585239  0.93030671    -0.11800
C1127       C  0.97115954  0.56390766  0.94932008     0.01500
C1128       C  0.96804504  0.58519642  0.95367348    -0.23900
H1129       H  0.90386149  0.59966197  0.86555181     0.09500
H1130       H  0.92575014  0.57818515  0.88562475     0.13100
H1131       H  0.91982206  0.65317698  0.90318058     0.11800
H1132       H  0.94140734  0.64850363  0.93411776     0.13000
H1133       H  0.96107831  0.62610466  0.95789168     0.12100
H1134       H  0.94759776  0.56077178  0.90219451     0.09100
H1135       H  0.96621232  0.53959609  0.92628404     0.12400
H1136       H  0.97392533  0.59172664  0.96816507     0.14300
C1137       C  0.05063158  0.47968939  0.94612183    -0.01200
C1138       C  0.04136254  0.46729690  0.93063164    -0.09300
C1139       C  0.05348092  0.45615472  0.91637147    -0.18100
C1140       C  0.07548423  0.45714405  0.91696431     0.04300
C1141       C  0.08487269  0.47081434  0.93172190     0.18500
C1142       C  0.07245892  0.48158850  0.94643721    -0.19500
C1143       C  0.10656715  0.47348391  0.93170623    -0.20800
C1144       C  0.11908647  0.46272075  0.91744663    -0.19300
C1145       C  0.11033213  0.44830068  0.90348828     0.19900
C1146       C  0.08845963  0.44501836  0.90343281     0.02000
C1147       C  0.08056352  0.42889513  0.89073497    -0.14100
C1148       C  0.09373549  0.41660999  0.87852061    -0.11800
C1149       C  0.11539505  0.42046153  0.87730265     0.01500
C1150       C  0.12338423  0.43654295  0.89017509    -0.23900
H1151       H  0.02455390  0.46573494  0.92982153     0.09500
H1152       H  0.04514644  0.44709196  0.90488693     0.13100
H1153       H  0.07977206  0.49147437  0.95808390     0.11800
H1154       H  0.11389356  0.48404603  0.94271893     0.13000
H1155       H  0.13580015  0.46522394  0.91777746     0.12100
H1156       H  0.06434348  0.42448647  0.89089433     0.09100
H1157       H  0.08653924  0.40341938  0.87098210     0.12400
H1158       H  0.14007401  0.43924066  0.89049721     0.14300
C1159       C  0.94229019  0.46152610  0.97275338    -0.01200
C1160       C  0.92714376  0.45062162  0.98416049    -0.09300
C1161       C  0.91216124  0.43830941  0.97387023    -0.18100
C1162       C  0.91198172  0.43644307  0.95175027     0.04300
C1163       C  0.92724460  0.44777611  0.94037115     0.18500
C1164       C  0.94195163  0.46008587  0.95082288    -0.19500
C1165       C  0.92809626  0.44653847  0.91853843    -0.20800
C1166       C  0.91452277  0.43368727  0.90767297    -0.19300
C1167       C  0.89970434  0.42181367  0.91835806     0.19900
C1168       C  0.89778271  0.42331935  0.94045224     0.02000
C1169       C  0.88198136  0.41135113  0.95012620    -0.14100
C1170       C  0.86990323  0.39719107  0.93856840    -0.11800
C1171       C  0.87340716  0.39415383  0.91700123     0.01500
C1172       C  0.88737691  0.40780764  0.90699558    -0.23900
H1173       H  0.92690479  0.45153709  0.00107439     0.09500
H1174       H  0.90111802  0.43018545  0.98361317     0.13100
H1175       H  0.95347827  0.46839507  0.94164679     0.11800
H1176       H  0.93965308  0.45525987  0.90980582     0.13000
H1177       H  0.91593497  0.43269080  0.89080187     0.12100
H1178       H  0.87879104  0.41243060  0.96665288     0.09100
H1179       H  0.85805300  0.38853167  0.94682401     0.12400
H1180       H  0.88967675  0.40643849  0.89023899     0.14300
C1181       C  0.11888115  0.38844815  0.85285227    -0.01200
C1182       C  0.12294783  0.36694726  0.85526096    -0.09300
C1183       C  0.11114950  0.35192200  0.84479329    -0.18100
C1184       C  0.09467066  0.35766754  0.83129837     0.04300
C1185       C  0.09141659  0.37927736  0.82764534     0.18500
C1186       C  0.10415610  0.39423904  0.83747851    -0.19500
C1187       C  0.07498668  0.38586562  0.81478365    -0.20800
C1188       C  0.06128997  0.37145211  0.80600839    -0.19300
C1189       C  0.06402967  0.35002504  0.80934434     0.19900
C1190       C  0.08112372  0.34279601  0.82157833     0.02000
C1191       C  0.08374188  0.32099438  0.82374609    -0.14100
C1192       C  0.06974011  0.30704408  0.81462049    -0.11800
C1193       C  0.05242405  0.31419106  0.80330197     0.01500
C1194       C  0.04969108  0.33576156  0.80066171    -0.23900
H1195       H  0.13544638  0.36136703  0.86511839     0.09500
H1196       H  0.11509336  0.33589412  0.84798723     0.13100
H1197       H  0.10154819  0.41067932  0.83440313     0.11800
H1198       H  0.07235331  0.40233488  0.81195662     0.13000
H1199       H  0.04843200  0.37711686  0.79656467     0.12100
H1200       H  0.09643629  0.31416945  0.83242113     0.09100
H1201       H  0.07216307  0.29048023  0.81702219     0.12400
H1202       H  0.03640729  0.34144729  0.79182718     0.14300
C1203       C  0.87972993  0.36194621  0.89408391    -0.01200
C1204       C  0.90088282  0.36223735  0.90026703    -0.09300
C1205       C  0.91555353  0.34880966  0.89133669    -0.18100
C1206       C  0.90974170  0.33407922  0.87601233     0.04300
C1207       C  0.88824594  0.33262049  0.87080001     0.18500
C1208       C  0.87358175  0.34605501  0.88012124    -0.19500
C1209       C  0.88151088  0.31799080  0.85601847    -0.20800
C1210       C  0.89577576  0.30520410  0.84577459    -0.19300
C1211       C  0.91712301  0.30667091  0.85011700     0.19900
C1212       C  0.92445567  0.32088138  0.86554988     0.02000
C1213       C  0.94624317  0.32163006  0.86934154    -0.14100
C1214       C  0.96011901  0.30932587  0.85775296    -0.11800
C1215       C  0.95271588  0.29589674  0.84224369     0.01500
C1216       C  0.93125890  0.29439149  0.83866972    -0.23900
H1217       H  0.90643642  0.37255726  0.91240319     0.09500
H1218       H  0.93135942  0.35034393  0.89684871     0.13100
H1219       H  0.85724172  0.34465636  0.87596281     0.11800
H1220       H  0.86511991  0.31668706  0.85206355     0.13000
H1221       H  0.89009599  0.29430964  0.83411999     0.12100
H1222       H  0.95310058  0.33189280  0.88077567     0.09100
H1223       H  0.97673976  0.31074542  0.86048670     0.12400
H1224       H  0.92562567  0.28405007  0.82647280     0.14300
C1225       C  0.79388299  0.44648589  0.80967794    -0.01200
C1226       C  0.78775778  0.44826108  0.83062027    -0.09300
C1227       C  0.79753642  0.43637710  0.84616839    -0.18100
C1228       C  0.81437915  0.42286774  0.84127065     0.04300
C1229       C  0.82014917  0.42085873  0.81987485     0.18500
C1230       C  0.80963649  0.43226398  0.80436564    -0.19500
C1231       C  0.83695010  0.40813045  0.81410896    -0.20800
C1232       C  0.84839755  0.39750472  0.82916261    -0.19300
C1233       C  0.84322184  0.39914960  0.85037105     0.19900
C1234       C  0.82609417  0.41174488  0.85676967     0.02000
C1235       C  0.82189052  0.41309376  0.87842036    -0.14100
C1236       C  0.83395815  0.40215030  0.89296119    -0.11800
C1237       C  0.85039209  0.38890526  0.88667146     0.01500
C1238       C  0.85530194  0.38833444  0.86517407    -0.23900
H1239       H  0.77562536  0.45920797  0.83503583     0.09500
H1240       H  0.79199183  0.43859842  0.86192510     0.13100
H1241       H  0.81470009  0.43109390  0.78821059     0.11800
H1242       H  0.84149437  0.40663966  0.79784158     0.13000
H1243       H  0.86145608  0.38794792  0.82416141     0.12100
H1244       H  0.80940302  0.42250623  0.88465190     0.09100
H1245       H  0.83014647  0.40364446  0.90940630     0.12400
H1246       H  0.86880217  0.37985842  0.85964549     0.14300
C1247       C  0.82706344  0.55018420  0.79774697    -0.01200
C1248       C  0.82475362  0.55011925  0.81950583    -0.09300
C1249       C  0.83345314  0.56584027  0.83177219    -0.18100
C1250       C  0.84457421  0.58251301  0.82258861     0.04300
C1251       C  0.84642539  0.58284015  0.80040802     0.18500
C1252       C  0.83790578  0.56661258  0.78823825    -0.19500
C1253       C  0.85679156  0.59934100  0.79055872    -0.20800
C1254       C  0.86613057  0.61506640  0.80230508    -0.19300
C1255       C  0.86550937  0.61458516  0.82420581     0.19900
C1256       C  0.85430246  0.59858275  0.83463404     0.02000
C1257       C  0.85369568  0.59912915  0.85669985    -0.14100
C1258       C  0.86527084  0.61372004  0.86789745    -0.11800
C1259       C  0.87805621  0.62839530  0.85773013     0.01500
C1260       C  0.87665454  0.62961615  0.83572186    -0.23900
H1261       H  0.81619453  0.53770912  0.82713868     0.09500
H1262       H  0.83114658  0.56444124  0.84839369     0.13100
H1263       H  0.83926323  0.56702154  0.77133286     0.11800
H1264       H  0.85797172  0.59991749  0.77365624     0.13000
H1265       H  0.87442232  0.62736579  0.79420204     0.12100
H1266       H  0.84494959  0.58811333  0.86587253     0.09100
H1267       H  0.86511424  0.61285086  0.88481723     0.12400
H1268       H  0.88461493  0.64181445  0.82724866     0.14300
C1269       C  0.11279151  0.35202798  0.12137466    -0.01200
C1270       C  0.13002928  0.34339195  0.13196027    -0.09300
C1271       C  0.14417776  0.33028766  0.12161519    -0.18100
C1272       C  0.14093035  0.32443960  0.10053417     0.04300
C1273       C  0.12172407  0.33024402  0.09112917     0.18500
C1274       C  0.10782865  0.34353027  0.10163363    -0.19500
C1275       C  0.11680686  0.32344935  0.07092025    -0.20800
C1276       C  0.13124700  0.31226008  0.05921583    -0.19300
C1277       C  0.15106565  0.30794240  0.06731531     0.19900
C1278       C  0.15610718  0.31353961  0.08824582     0.02000
C1279       C  0.17653431  0.30917806  0.09542695    -0.14100
C1280       C  0.19163328  0.30085702  0.08195259    -0.11800
C1281       C  0.18682334  0.29637287  0.06101609     0.01500
C1282       C  0.16622687  0.29914977  0.05413626    -0.23900
H1283       H  0.13326673  0.34786307  0.14797642     0.09500
H1284       H  0.15761213  0.32518581  0.13039368     0.13100
H1285       H  0.09331780  0.34763471  0.09399391     0.11800
H1286       H  0.10195433  0.32742334  0.06384182     0.13000
H1287       H  0.12722264  0.30780967  0.04335882     0.12100
H1288       H  0.18159322  0.31303017  0.11104135     0.09100
H1289       H  0.20740109  0.29887825  0.08772445     0.12400
H1290       H  0.16222797  0.29566664  0.03802445     0.14300
C1291       C  0.14445310  0.39609876  0.88314208    -0.01200
C1292       C  0.16591276  0.40048190  0.88543014    -0.09300
C1293       C  0.17770562  0.39162276  0.90151398    -0.18100
C1294       C  0.16855383  0.37809566  0.91629291     0.04300
C1295       C  0.14675104  0.37447979  0.91475211     0.18500
C1296       C  0.13498500  0.38384106  0.89876836    -0.19500
C1297       C  0.13682621  0.36115729  0.92891318    -0.20800
C1298       C  0.14824451  0.35068665  0.94412410    -0.19300
C1299       C  0.16982092  0.35355598  0.94578666     0.19900
C1300       C  0.18025093  0.36773897  0.93229943     0.02000
C1301       C  0.20197065  0.37056106  0.93521037    -0.14100
C1302       C  0.21295883  0.35903436  0.95018078    -0.11800
C1303       C  0.20275848  0.34424632  0.96260851     0.01500
C1304       C  0.18109494  0.34193414  0.96059514    -0.23900
H1305       H  0.17390022  0.41108724  0.87505786     0.09500
H1306       H  0.19403090  0.39557300  0.90183030     0.13100
H1307       H  0.11833326  0.38098491  0.89796077     0.11800
H1308       H  0.12017505  0.35841462  0.92789929     0.13000
H1309       H  0.14016608  0.34006854  0.95451360     0.12100
H1310       H  0.21097848  0.38133674  0.92598918     0.09100
H1311       H  0.22966747  0.36118351  0.95149480     0.12400
H1312       H  0.17299092  0.33075008  0.97036577     0.14300
C1313       C  0.94041086  0.20094516  0.79704168    -0.01200
C1314       C  0.94189313  0.18069112  0.78894873    -0.09300
C1315       C  0.92871324  0.16482459  0.79629963    -0.18100
C1316       C  0.91350594  0.16892593  0.81188992     0.04300
C1317       C  0.91098967  0.18997471  0.81855940     0.18500
C1318       C  0.92453022  0.20558330  0.81134361    -0.19500
C1319       C  0.89551813  0.19523207  0.83306880    -0.20800
C1320       C  0.88315204  0.17988161  0.84199718    -0.19300
C1321       C  0.88636296  0.15881843  0.83711657     0.19900
C1322       C  0.90127066  0.15297604  0.82174514     0.02000
C1323       C  0.90369254  0.13142013  0.81756666    -0.14100
C1324       C  0.89296228  0.11639038  0.82933353    -0.11800
C1325       C  0.87960380  0.12211890  0.84591887     0.01500
C1326       C  0.87520865  0.14360061  0.84822428    -0.23900
H1327       H  0.95405597  0.17684674  0.77781925     0.09500
H1328       H  0.93111900  0.14942211  0.78992688     0.13100
H1329       H  0.92321784  0.22133419  0.81746393     0.11800
H1330       H  0.89327842  0.21129727  0.83791718     0.13000
H1331       H  0.87162714  0.18445697  0.85354464     0.12100
H1332       H  0.91427803  0.12568872  0.80577226     0.09100
H1333       H  0.89576737  0.10003560  0.82605285     0.12400
H1334       H  0.86324050  0.14887799  0.85889338     0.14300
C1335       C  0.88562902  0.09063995  0.87081619    -0.01200
C1336       C  0.90717437  0.09511414  0.87110743    -0.09300
C1337       C  0.92107199  0.08369774  0.88351211    -0.18100
C1338       C  0.91406464  0.06752601  0.89675219     0.04300
C1339       C  0.89250110  0.06258038  0.89626890     0.18500
C1340       C  0.87867626  0.07411972  0.88365100    -0.19500
C1341       C  0.88470658  0.04651823  0.90886881    -0.20800
C1342       C  0.89781750  0.03552510  0.92230181    -0.19300
C1343       C  0.91902110  0.04052891  0.92377121     0.19900
C1344       C  0.92749093  0.05659025  0.91097312     0.02000
C1345       C  0.94884523  0.06151997  0.91358145    -0.14100
C1346       C  0.96096771  0.05154396  0.92876164    -0.11800
C1347       C  0.95253085  0.03588113  0.94142447     0.01500
C1348       C  0.93166089  0.03005829  0.93849040    -0.23900
H1349       H  0.91358688  0.10815037  0.86262440     0.09500
H1350       H  0.93720356  0.08831928  0.88276219     0.13100
H1351       H  0.86214255  0.07062914  0.88424294     0.11800
H1352       H  0.86827348  0.04257885  0.90851721     0.13000
H1353       H  0.89120591  0.02335454  0.93199708     0.12100
H1354       H  0.95652716  0.07342705  0.90455775     0.09100
H1355       H  0.97710375  0.05618026  0.93068925     0.12400
H1356       H  0.92498991  0.01806955  0.94838769     0.14300
C1357       C  0.85454799  0.09294449  0.84470773    -0.01200
C1358       C  0.83841225  0.10417259  0.83485270    -0.09300
C1359       C  0.82370354  0.09435748  0.82219887    -0.18100
C1360       C  0.82439254  0.07261514  0.81868282     0.04300
C1361       C  0.84121156  0.06123904  0.82762891     0.18500
C1362       C  0.85636142  0.07147836  0.83993966    -0.19500
C1363       C  0.84251345  0.03959668  0.82463926    -0.20800
C1364       C  0.82704673  0.02892901  0.81365062    -0.19300
C1365       C  0.81004439  0.03965491  0.80500094     0.19900
C1366       C  0.80877826  0.06173816  0.80696268     0.02000
C1367       C  0.79174551  0.07196544  0.79735529    -0.14100
C1368       C  0.77633656  0.06076565  0.78686976    -0.11800
C1369       C  0.77710489  0.03894027  0.78556386     0.01500
C1370       C  0.79418374  0.02845960  0.79454708    -0.23900
H1371       H  0.83676484  0.12078119  0.83758276     0.09500
H1372       H  0.81167882  0.10425290  0.81585564     0.13100
H1373       H  0.86928207  0.06243524  0.84594525     0.11800
H1374       H  0.85532969  0.03076391  0.83129204     0.13000
H1375       H  0.82831500  0.01213609  0.81205023     0.12100
H1376       H  0.78976515  0.08865186  0.79767760     0.09100
H1377       H  0.76346839  0.06936183  0.78002932     0.12400
H1378       H  0.79514479  0.01160345  0.79342376     0.14300
C1379       C  0.08647027  0.87912160  0.88576124    -0.01200
C1380       C  0.09169927  0.88104638  0.90711036    -0.09300
C1381       C  0.08016015  0.89368264  0.92063475    -0.18100
C1382       C  0.06303331  0.90555217  0.91341398     0.04300
C1383       C  0.05789213  0.90416237  0.89187453     0.18500
C1384       C  0.06965884  0.89136246  0.87838732    -0.19500
C1385       C  0.04121220  0.91581591  0.88382659    -0.20800
C1386       C  0.02960955  0.92898877  0.89671291    -0.19300
C1387       C  0.03445917  0.93097337  0.91797217     0.19900
C1388       C  0.05122989  0.91920160  0.92664812     0.02000
C1389       C  0.05574502  0.92196604  0.94810859    -0.14100
C1390       C  0.04473186  0.93639734  0.96013536    -0.11800
C1391       C  0.02850349  0.94822726  0.95148760     0.01500
C1392       C  0.02305227  0.94511131  0.93050345    -0.23900
H1393       H  0.10526387  0.87347905  0.91364753     0.09500
H1394       H  0.08540374  0.89410952  0.93663005     0.13100
H1395       H  0.06579672  0.89096593  0.86187977     0.11800
H1396       H  0.03718182  0.91483922  0.86738829     0.13000
H1397       H  0.01692321  0.93790993  0.88992895     0.12100
H1398       H  0.06797008  0.91356625  0.95603162     0.09100
H1399       H  0.04911510  0.93852133  0.97637434     0.12400
H1400       H  0.01064160  0.95441013  0.92369351     0.14300
C1401       C  0.94572396  0.95221461  0.02831964    -0.01200
C1402       C  0.95393972  0.93584969  0.04018646    -0.09300
C1403       C  0.94087966  0.92211128  0.05084744    -0.18100
C1404       C  0.91893892  0.92459616  0.05039311     0.04300
C1405       C  0.91060390  0.94127693  0.03830556     0.18500
C1406       C  0.92401193  0.95470672  0.02710717    -0.19500
C1407       C  0.88901322  0.94479567  0.03804497    -0.20800
C1408       C  0.87558468  0.93241332  0.04987788    -0.19300
C1409       C  0.88334050  0.91600095  0.06209589     0.19900
C1410       C  0.90507192  0.91160509  0.06211284     0.02000
C1411       C  0.91201332  0.89435758  0.07387022    -0.14100
C1412       C  0.89832251  0.88296942  0.08629743    -0.11800
C1413       C  0.87700468  0.88839075  0.08807244     0.01500
C1414       C  0.86956267  0.90417664  0.07458712    -0.23900
H1415       H  0.97068960  0.93388003  0.04148742     0.09500
H1416       H  0.94852664  0.91015697  0.05987713     0.13100
H1417       H  0.91763179  0.96767553  0.01828242     0.11800
H1418       H  0.88249256  0.95748922  0.02894416     0.13000
H1419       H  0.85902307  0.93584770  0.04963747     0.12100
H1420       H  0.92797683  0.88907222  0.07368579     0.09100
H1421       H  0.90482729  0.86960299  0.09425623     0.12400
H1422       H  0.85303737  0.90782850  0.07454812     0.14300
C1423       C  0.91144548  0.12602291  0.12144910    -0.01200
C1424       C  0.90734676  0.10439541  0.12119649    -0.09300
C1425       C  0.91807718  0.09087819  0.10802886    -0.18100
C1426       C  0.93297573  0.09834427  0.09372211     0.04300
C1427       C  0.93588938  0.12024257  0.09232008     0.18500
C1428       C  0.92525230  0.13378316  0.10610930    -0.19500
C1429       C  0.94913191  0.12841299  0.07693571    -0.20800
C1430       C  0.95940450  0.11522771  0.06289769    -0.19300
C1431       C  0.95727564  0.09350895  0.06437561     0.19900
C1432       C  0.94444401  0.08480109  0.08022954     0.02000
C1433       C  0.94385112  0.06285748  0.08217466    -0.14100
C1434       C  0.95481852  0.05007010  0.06843125    -0.11800
C1435       C  0.96667762  0.05856003  0.05215834     0.01500
C1436       C  0.96794052  0.08036579  0.05023499    -0.23900
H1437       H  0.89513426  0.09756672  0.13056393     0.09500
H1438       H  0.91364391  0.07468574  0.10881873     0.13100
H1439       H  0.92757834  0.15048968  0.10488302     0.11800
H1440       H  0.95133011  0.14511737  0.07556012     0.13000
H1441       H  0.96927785  0.12205006  0.05097818     0.12100
H1442       H  0.93537997  0.05505500  0.09443265     0.09100
H1443       H  0.95373157  0.03331955  0.07042930     0.12400
H1444       H  0.97741846  0.08709145  0.03793303     0.14300
C1445       C  0.05259085  0.97748343  0.05551970    -0.01200
C1446       C  0.04935018  0.97824070  0.07718737    -0.09300
C1447       C  0.06360117  0.96894521  0.09096077    -0.18100
C1448       C  0.08140449  0.95822598  0.08337540     0.04300
C1449       C  0.08450747  0.95751451  0.06136595     0.18500
C1450       C  0.07042261  0.96735572  0.04782202    -0.19500
C1451       C  0.10132177  0.94643876  0.05287588    -0.20800
C1452       C  0.11465046  0.93520873  0.06573629    -0.19300
C1453       C  0.11176695  0.93518774  0.08743054     0.19900
C1454       C  0.09573797  0.94740076  0.09666909     0.02000
C1455       C  0.09482690  0.94812718  0.11874638    -0.14100
C1456       C  0.10797048  0.93561159  0.13095574    -0.11800
C1457       C  0.12176734  0.92114128  0.12168960     0.01500
C1458       C  0.12461034  0.92255425  0.09982931    -0.23900
H1459       H  0.03567090  0.98592574  0.08352590     0.09500
H1460       H  0.05994681  0.96980682  0.10740270     0.13100
H1461       H  0.07301403  0.96643216  0.03108031     0.11800
H1462       H  0.10379801  0.94591210  0.03610884     0.13000
H1463       H  0.12709451  0.92618171  0.05861848     0.12100
H1464       H  0.08405466  0.95813875  0.12698147     0.09100
H1465       H  0.10647816  0.93626737  0.14782353     0.12400
H1466       H  0.13676560  0.91380287  0.09203937     0.14300
C1467       C  0.04483788  0.21169718  0.83522975    -0.01200
C1468       C  0.03740994  0.19828546  0.85083065    -0.09300
C1469       C  0.05103485  0.18467507  0.86130304    -0.18100
C1470       C  0.07264524  0.18422313  0.85656212     0.04300
C1471       C  0.08010178  0.19835946  0.84120574     0.18500
C1472       C  0.06625995  0.21163538  0.83065372    -0.19500
C1473       C  0.10139930  0.19930762  0.83648339    -0.20800
C1474       C  0.11561761  0.18677163  0.84701262    -0.19300
C1475       C  0.10884181  0.17259455  0.86215160     0.19900
C1476       C  0.08724073  0.17065821  0.86674015     0.02000
C1477       C  0.08125864  0.15502521  0.88105061    -0.14100
C1478       C  0.09618527  0.14296095  0.89150947    -0.11800
C1479       C  0.11775685  0.14655898  0.88882066     0.01500
C1480       C  0.12367273  0.16060205  0.87297367    -0.23900
H1481       H  0.02097444  0.19809273  0.85475886     0.09500
H1482       H  0.04428869  0.17488562  0.87321166     0.13100
H1483       H  0.07231884  0.22213322  0.81883833     0.11800
H1484       H  0.10715830  0.21008208  0.82478089     0.13000
H1485       H  0.13205299  0.18819869  0.84329539     0.12100
H1486       H  0.06511365  0.15159304  0.88427407     0.09100
H1487       H  0.09047936  0.13082727  0.90169316     0.12400
H1488       H  0.14012884  0.16286386  0.86976210     0.14300
C1489       C  0.05790182  0.05733725  0.97731387    -0.01200
C1490       C  0.05510870  0.07899915  0.97851539    -0.09300
C1491       C  0.06988861  0.09260458  0.97006686    -0.18100
C1492       C  0.08782785  0.08489343  0.95969716     0.04300
C1493       C  0.09093356  0.06292874  0.95918666     0.18500
C1494       C  0.07628132  0.04947881  0.96832279    -0.19500
C1495       C  0.10807119  0.05443239  0.94857864    -0.20800
C1496       C  0.12133007  0.06717890  0.93710434    -0.19300
C1497       C  0.11802700  0.08876386  0.93637189     0.19900
C1498       C  0.10200280  0.09803402  0.94860201     0.02000
C1499       C  0.10051384  0.12000828  0.94859698    -0.14100
C1500       C  0.11244507  0.13194454  0.93482674    -0.11800
C1501       C  0.12580155  0.12245656  0.92008270     0.01500
C1502       C  0.13001458  0.10099320  0.92268701    -0.23900
H1503       H  0.04118610  0.08549358  0.98561214     0.09500
H1504       H  0.06634989  0.10902612  0.97104295     0.13100
H1505       H  0.07867547  0.03274854  0.96735129     0.11800
H1506       H  0.11066060  0.03771341  0.94831758     0.13000
H1507       H  0.13381014  0.06001928  0.92816328     0.12100
H1508       H  0.08988384  0.12836942  0.95865074     0.09100
H1509       H  0.10994386  0.14865560  0.93454597     0.12400
H1510       H  0.14204955  0.09339620  0.91357495     0.14300
C1511       C  0.14890290  0.15242783  0.91326106    -0.01200
C1512       C  0.16734619  0.14662820  0.92379070    -0.09300
C1513       C  0.17979570  0.16146295  0.93404772    -0.18100
C1514       C  0.17359528  0.18262810  0.93532194     0.04300
C1515       C  0.15390660  0.18803957  0.92672765     0.18500
C1516       C  0.14201351  0.17322082  0.91589654    -0.19500
C1517       C  0.14594864  0.20825134  0.92912666    -0.20800
C1518       C  0.15728836  0.22338771  0.93964670    -0.19300
C1519       C  0.17716445  0.21889946  0.94746832     0.19900
C1520       C  0.18582355  0.19856284  0.94521204     0.02000
C1521       C  0.20643747  0.19532302  0.95254712    -0.14100
C1522       C  0.21779630  0.21158969  0.96188070    -0.11800
C1523       C  0.20883548  0.23140083  0.96458186     0.01500
C1524       C  0.18847292  0.23481655  0.95736886    -0.23900
H1525       H  0.17236983  0.13048169  0.92372998     0.09500
H1526       H  0.19393920  0.15587061  0.94128851     0.13100
H1527       H  0.12687527  0.17804795  0.91018989     0.11800
H1528       H  0.13077286  0.21238806  0.92287296     0.13000
H1529       H  0.15061121  0.23885580  0.94132342     0.12100
H1530       H  0.21426150  0.18049247  0.95091232     0.09100
H1531       H  0.23350765  0.20855409  0.96734450     0.12400
H1532       H  0.18146545  0.25014018  0.95915102     0.14300
C1533       C  0.35118535  0.09743621  0.65803857    -0.01200
C1534       C  0.35352493  0.07581408  0.66130476    -0.09300
C1535       C  0.33921484  0.06463981  0.67337693    -0.18100
C1536       C  0.32223129  0.07471973  0.68323727     0.04300
C1537       C  0.32119439  0.09680519  0.68197461     0.18500
C1538       C  0.33562310  0.10785540  0.66969213    -0.19500
C1539       C  0.30548768  0.10770786  0.69262861    -0.20800
C1540       C  0.29064134  0.09708670  0.70439342    -0.19300
C1541       C  0.29073280  0.07525397  0.70527899     0.19900
C1542       C  0.30633527  0.06372347  0.69439786     0.02000
C1543       C  0.30488169  0.04169665  0.69452025    -0.14100
C1544       C  0.28869722  0.03160886  0.70506951    -0.11800
C1545       C  0.27380853  0.04301231  0.71631229     0.01500
C1546       C  0.27499630  0.06483759  0.71653950    -0.23900
H1547       H  0.36631634  0.06718920  0.65446177     0.09500
H1548       H  0.34196039  0.04810471  0.67486941     0.13100
H1549       H  0.33412585  0.12465317  0.66828535     0.11800
H1550       H  0.30465650  0.12458304  0.69183460     0.13000
H1551       H  0.27871591  0.10599952  0.71247318     0.12100
H1552       H  0.31562393  0.03186951  0.68604015     0.09100
H1553       H  0.28781315  0.01473394  0.70447591     0.12400
H1554       H  0.26314258  0.07371972  0.72478293     0.14300
C1555       C  0.19344794  0.05284059  0.81081650    -0.01200
C1556       C  0.20626620  0.06778225  0.82039405    -0.09300
C1557       C  0.19811413  0.08162413  0.83546593    -0.18100
C1558       C  0.17678045  0.08091976  0.84139880     0.04300
C1559       C  0.16418341  0.06521132  0.83212347     0.18500
C1560       C  0.17253410  0.05150993  0.81721090    -0.19500
C1561       C  0.14311150  0.06335805  0.83747654    -0.20800
C1562       C  0.13410094  0.07689503  0.85180403    -0.19300
C1563       C  0.14589055  0.09271288  0.86110224     0.19900
C1564       C  0.16734439  0.09510851  0.85606129     0.02000
C1565       C  0.17811186  0.11185885  0.86558293    -0.14100
C1566       C  0.16815427  0.12518376  0.87994776    -0.11800
C1567       C  0.14718906  0.12202529  0.88591343     0.01500
C1568       C  0.13616066  0.10611446  0.87547405    -0.23900
H1569       H  0.22249920  0.06910138  0.81590061     0.09500
H1570       H  0.20878739  0.09280325  0.84210364     0.13100
H1571       H  0.16242223  0.03985223  0.81027001     0.11800
H1572       H  0.13346712  0.05136968  0.83045059     0.13000
H1573       H  0.11772444  0.07501458  0.85558388     0.12100
H1574       H  0.19418912  0.11522230  0.86197002     0.09100
H1575       H  0.17705000  0.13816725  0.88591003     0.12400
H1576       H  0.11976770  0.10388269  0.87902600     0.14300
C1577       C  0.16108694  0.95740900  0.79082926    -0.01200
C1578       C  0.14325379  0.94775788  0.78284410    -0.09300
C1579       C  0.13169166  0.93403265  0.79528494    -0.18100
C1580       C  0.13754744  0.92992523  0.81627253     0.04300
C1581       C  0.15484319  0.94102599  0.82459332     0.18500
C1582       C  0.16664558  0.95422636  0.81173898    -0.19500
C1583       C  0.16045851  0.93866051  0.84561171    -0.20800
C1584       C  0.14952494  0.92510207  0.85851508    -0.19300
C1585       C  0.13328831  0.91293370  0.85048614     0.19900
C1586       C  0.12716118  0.91503207  0.82923095     0.02000
C1587       C  0.11135441  0.90169408  0.82174607    -0.14100
C1588       C  0.10276496  0.88627899  0.83449667    -0.11800
C1589       C  0.10941695  0.88349884  0.85538236     0.01500
C1590       C  0.12365154  0.89815141  0.86346921    -0.23900
H1591       H  0.13869171  0.95026217  0.76672118     0.09500
H1592       H  0.11829817  0.92688350  0.78806099     0.13100
H1593       H  0.18030897  0.96203059  0.81797548     0.11800
H1594       H  0.17345155  0.94731524  0.85210598     0.13000
H1595       H  0.15431046  0.92356264  0.87470385     0.12100
H1596       H  0.10564975  0.90240555  0.80590577     0.09100
H1597       H  0.09055117  0.87681601  0.82776069     0.12400
H1598       H  0.12814356  0.89718060  0.87979529     0.14300
C1599       C  0.84873654  0.36203743  0.91650566    -0.01200
C1600       C  0.82810903  0.35735580  0.91044016    -0.09300
C1601       C  0.81639640  0.34230908  0.92082022    -0.18100
C1602       C  0.82489729  0.33068385  0.93750186     0.04300
C1603       C  0.84575346  0.33498130  0.94356159     0.18500
C1604       C  0.85736002  0.35032617  0.93307663    -0.19500
C1605       C  0.85510269  0.32357795  0.95972506    -0.20800
C1606       C  0.84421075  0.30779548  0.96987137    -0.19300
C1607       C  0.82370780  0.30300831  0.96408237     0.19900
C1608       C  0.81368983  0.31447950  0.94788508     0.02000
C1609       C  0.79301320  0.30894897  0.94251810    -0.14100
C1610       C  0.78307904  0.29224133  0.95219915    -0.11800
C1611       C  0.79310553  0.28084298  0.96788930     0.01500
C1612       C  0.81326150  0.28653477  0.97410716    -0.23900
H1613       H  0.82091006  0.36448792  0.89696067     0.09500
H1614       H  0.80087929  0.33976551  0.91490676     0.13100
H1615       H  0.87348011  0.35291500  0.93750391     0.11800
H1616       H  0.87103597  0.32674485  0.96441640     0.13000
H1617       H  0.85196417  0.29911349  0.98217207     0.12100
H1618       H  0.78410797  0.31702997  0.93075578     0.09100
H1619       H  0.76735109  0.28825705  0.94744854     0.12400
H1620       H  0.82106567  0.27768131  0.98626787     0.14300
C1621       C  0.80564907  0.19864258  0.05581830    -0.01200
C1622       C  0.80424468  0.17752415  0.06136167    -0.09300
C1623       C  0.81905248  0.16820128  0.07413055    -0.18100
C1624       C  0.83614766  0.17963918  0.08188114     0.04300
C1625       C  0.83695920  0.20138728  0.07753071     0.18500
C1626       C  0.82176493  0.21073328  0.06447287    -0.19500
C1627       C  0.85307487  0.21345927  0.08606256    -0.20800
C1628       C  0.86834796  0.20434357  0.09871190    -0.19300
C1629       C  0.86820113  0.18282780  0.10274886     0.19900
C1630       C  0.85230229  0.17017812  0.09396154     0.02000
C1631       C  0.85348957  0.14844447  0.09715172    -0.14100
C1632       C  0.86882538  0.13979981  0.10979535    -0.11800
C1633       C  0.88361876  0.15227466  0.12016926     0.01500
C1634       C  0.88379229  0.17384094  0.11551625    -0.23900
H1635       H  0.79163851  0.16788235  0.05554885     0.09500
H1636       H  0.81653884  0.15198208  0.07771484     0.13100
H1637       H  0.82283960  0.22715726  0.06059525     0.11800
H1638       H  0.85381882  0.23007294  0.08302241     0.13000
H1639       H  0.88044787  0.21417129  0.10525169     0.12100
H1640       H  0.84287552  0.13756698  0.08998654     0.09100
H1641       H  0.86864211  0.12307297  0.11215774     0.12400
H1642       H  0.89591589  0.18378947  0.12171871     0.14300
C1643       C  0.85681382  0.11464863  0.87845476    -0.01200
C1644       C  0.86700231  0.12824834  0.89247194    -0.09300
C1645       C  0.85611137  0.13859114  0.90835078    -0.18100
C1646       C  0.83468754  0.13479015  0.91174520     0.04300
C1647       C  0.82508176  0.11889105  0.89967369     0.18500
C1648       C  0.83601476  0.10914679  0.88324279    -0.19500
C1649       C  0.80450533  0.11293251  0.90394966    -0.20800
C1650       C  0.79302094  0.12296952  0.91948230    -0.19300
C1651       C  0.80152241  0.13978296  0.93055722     0.19900
C1652       C  0.82246078  0.14607189  0.92671481     0.02000
C1653       C  0.82987464  0.16403041  0.93721053    -0.14100
C1654       C  0.81686665  0.17548218  0.95053563    -0.11800
C1655       C  0.79637317  0.16906128  0.95442783     0.01500
C1656       C  0.78892710  0.15091222  0.94480386    -0.23900
H1657       H  0.88341622  0.13167922  0.89041921     0.09500
H1658       H  0.86491432  0.14929801  0.91790688     0.13100
H1659       H  0.82815631  0.09707873  0.87443053     0.11800
H1660       H  0.79717383  0.10050561  0.89511015     0.13000
H1661       H  0.77709813  0.11805212  0.92229631     0.12100
H1662       H  0.84532095  0.17015093  0.93465087     0.09100
H1663       H  0.82278283  0.18961097  0.95770826     0.12400
H1664       H  0.77291699  0.14616431  0.94748286     0.14300
C1665       C  0.11919524  0.89068884  0.14810088    -0.01200
C1666       C  0.09724393  0.89147356  0.14611145    -0.09300
C1667       C  0.08426179  0.87809919  0.15729426    -0.18100
C1668       C  0.09251232  0.86238508  0.17028891     0.04300
C1669       C  0.11451265  0.86009489  0.17102407     0.18500
C1670       C  0.12751158  0.87425448  0.16031313    -0.19500
C1671       C  0.12334670  0.84339443  0.18208178    -0.20800
C1672       C  0.11072067  0.82874438  0.19205464    -0.19300
C1673       C  0.08895833  0.83090155  0.19198821     0.19900
C1674       C  0.07962945  0.84822903  0.18172508     0.02000
C1675       C  0.05779134  0.85070199  0.18338780    -0.14100
C1676       C  0.04559864  0.83588346  0.19360568    -0.11800
C1677       C  0.05459371  0.81795618  0.20243127     0.01500
C1678       C  0.07640850  0.81575463  0.20187636    -0.23900
H1679       H  0.08952543  0.90189540  0.13540638     0.09500
H1680       H  0.06773630  0.87982149  0.15463872     0.13100
H1681       H  0.14430411  0.87237633  0.16123008     0.11800
H1682       H  0.14012883  0.84136568  0.18261084     0.13000
H1683       H  0.11804119  0.81571109  0.19999119     0.12100
H1684       H  0.04967659  0.86402345  0.17705188     0.09100
H1685       H  0.02885473  0.83819787  0.19392740     0.12400
H1686       H  0.08361074  0.80214105  0.20890636     0.14300
C1687       C  0.95108334  0.70056030  0.19666388    -0.01200
C1688       C  0.94259828  0.68522828  0.20972590    -0.09300
C1689       C  0.92983507  0.66942093  0.20143602    -0.18100
C1690       C  0.92516792  0.66854881  0.17973400     0.04300
C1691       C  0.93375872  0.68426537  0.16672262     0.18500
C1692       C  0.94641540  0.69986830  0.17519249    -0.19500
C1693       C  0.92968034  0.68447821  0.14522081    -0.20800
C1694       C  0.91692987  0.66949884  0.13626030    -0.19300
C1695       C  0.90793364  0.65393730  0.14857608     0.19900
C1696       C  0.91207276  0.65299859  0.17041040     0.02000
C1697       C  0.90292326  0.63652880  0.18180624    -0.14100
C1698       C  0.88913114  0.62256341  0.17220975    -0.11800
C1699       C  0.88351797  0.62469624  0.15095947     0.01500
C1700       C  0.89440736  0.63959688  0.13911594    -0.23900
H1701       H  0.94595813  0.68533803  0.22632737     0.09500
H1702       H  0.92377575  0.65816560  0.21236799     0.13100
H1703       H  0.95266937  0.71165310  0.16478671     0.11800
H1704       H  0.93627289  0.69644855  0.13525719     0.13000
H1705       H  0.91386801  0.67025959  0.11960043     0.12100
H1706       H  0.90610715  0.63406846  0.19817809     0.09100
H1707       H  0.88298804  0.61003875  0.18167435     0.12400
H1708       H  0.89143246  0.64072464  0.12246048     0.14300
C1709       C  0.87444861  0.86194010  0.11780016    -0.01200
C1710       C  0.87290823  0.83999157  0.11787299    -0.09300
C1711       C  0.88741010  0.82770308  0.12867617    -0.18100
C1712       C  0.90361586  0.83689074  0.14047882     0.04300
C1713       C  0.90343445  0.85891068  0.14275547     0.18500
C1714       C  0.88896011  0.87106383  0.13166841    -0.19500
C1715       C  0.91811529  0.86877227  0.15558926    -0.20800
C1716       C  0.93323528  0.85719519  0.16600949    -0.19300
C1717       C  0.93446773  0.83555704  0.16329591     0.19900
C1718       C  0.91989823  0.82509163  0.15021112     0.02000
C1719       C  0.92269170  0.80342096  0.14693190    -0.14100
C1720       C  0.93893241  0.79255761  0.15671051    -0.11800
C1721       C  0.95264073  0.80282006  0.17030952     0.01500
C1722       C  0.95033222  0.82434245  0.17347465    -0.23900
H1723       H  0.86082037  0.83196909  0.10932032     0.09500
H1724       H  0.88551807  0.81101933  0.12758472     0.13100
H1725       H  0.88986983  0.88792374  0.13273186     0.11800
H1726       H  0.91794283  0.88557686  0.15753522     0.13000
H1727       H  0.94433380  0.86528539  0.17589475     0.12100
H1728       H  0.91277641  0.79454027  0.13662332     0.09100
H1729       H  0.94045689  0.77593092  0.15401086     0.12400
H1730       H  0.96108448  0.83244486  0.18374878     0.14300
C1731       C  0.12363501  0.65621944  0.11261083    -0.01200
C1732       C  0.12269341  0.67768769  0.10781263    -0.09300
C1733       C  0.10719355  0.69055012  0.11622376    -0.18100
C1734       C  0.09175604  0.68252315  0.12974163     0.04300
C1735       C  0.09223054  0.66081441  0.13413803     0.18500
C1736       C  0.10763849  0.64799250  0.12527688    -0.19500
C1737       C  0.07754517  0.65201720  0.14768919    -0.20800
C1738       C  0.06287915  0.66450347  0.15770732    -0.19300
C1739       C  0.06224116  0.68601369  0.15403512     0.19900
C1740       C  0.07618507  0.69528356  0.13945657     0.02000
C1741       C  0.07417995  0.71698310  0.13566340    -0.14100
C1742       C  0.05984484  0.72910106  0.14687023    -0.11800
C1743       C  0.04718863  0.71997990  0.16207457     0.01500
C1744       C  0.04810635  0.69843093  0.16531671    -0.23900
H1745       H  0.13358758  0.68484287  0.09714145     0.09500
H1746       H  0.10784469  0.70679196  0.11194759     0.13100
H1747       H  0.10755991  0.63140381  0.12862543     0.11800
H1748       H  0.07775625  0.63543363  0.15100411     0.13000
H1749       H  0.05211115  0.65731828  0.16859415     0.12100
H1750       H  0.08366598  0.72509819  0.12440246     0.09100
H1751       H  0.05919827  0.74578766  0.14422483     0.12400
H1752       H  0.03815033  0.69142551  0.17708952     0.14300
C1753       C  0.64878899  0.11722819  0.12113161    -0.01200
C1754       C  0.64821735  0.13920092  0.12135749    -0.09300
C1755       C  0.66034459  0.15083743  0.10753564    -0.18100
C1756       C  0.67384763  0.14098026  0.09311200     0.04300
C1757       C  0.67656183  0.11907872  0.09477404     0.18500
C1758       C  0.66452849  0.10757668  0.10901439    -0.19500
C1759       C  0.69070541  0.10869110  0.08168265    -0.20800
C1760       C  0.70193348  0.11960807  0.06663196    -0.19300
C1761       C  0.69895620  0.14109589  0.06401842     0.19900
C1762       C  0.68471335  0.15205194  0.07712244     0.02000
C1763       C  0.68143675  0.17349211  0.07322170    -0.14100
C1764       C  0.69221162  0.18371709  0.05735347    -0.11800
C1765       C  0.70673792  0.17307152  0.04486647     0.01500
C1766       C  0.71000198  0.15169436  0.04826433    -0.23900
H1767       H  0.63822871  0.14772173  0.13197349     0.09500
H1768       H  0.65873249  0.16755511  0.10847758     0.13100
H1769       H  0.66616490  0.09073802  0.10947103     0.11800
H1770       H  0.69294344  0.09197076  0.08294779     0.13000
H1771       H  0.71271383  0.11111341  0.05669732     0.12100
H1772       H  0.67041569  0.18276144  0.08195527     0.09100
H1773       H  0.68934510  0.20022972  0.05511221     0.12400
H1774       H  0.72107462  0.14326266  0.03859005     0.14300
C1775       C  0.62110256  0.08872629  0.11787215    -0.01200
C1776       C  0.62160293  0.09210756  0.09603751    -0.09300
C1777       C  0.60974131  0.08035089  0.08224896    -0.18100
C1778       C  0.59593981  0.06490666  0.08944875     0.04300
C1779       C  0.59471659  0.06151368  0.11136566     0.18500
C1780       C  0.60707977  0.07342893  0.12528373    -0.19500
C1781       C  0.58070004  0.04668032  0.11920306    -0.20800
C1782       C  0.56745861  0.03570141  0.10577554    -0.19300
C1783       C  0.56792463  0.03919750  0.08412789     0.19900
C1784       C  0.58255457  0.05355516  0.07566051     0.02000
C1785       C  0.58273691  0.05645749  0.05373635    -0.14100
C1786       C  0.56804462  0.04683576  0.04099776    -0.11800
C1787       C  0.55309476  0.03343199  0.04937614     0.01500
C1788       C  0.55346456  0.02902170  0.07088396    -0.23900
H1789       H  0.63034529  0.10468345  0.08908969     0.09500
H1790       H  0.61122366  0.08445754  0.06599948     0.13100
H1791       H  0.60557158  0.07108743  0.14200672     0.11800
H1792       H  0.57966307  0.04385143  0.13587908     0.13000
H1793       H  0.55649566  0.02469506  0.11241578     0.12100
H1794       H  0.59375789  0.06635811  0.04585618     0.09100
H1795       H  0.56823994  0.05005379  0.02435237     0.12400
H1796       H  0.54193788  0.01851458  0.07739467     0.14300
C1797       C  0.61781786  0.12797077  0.85179426    -0.01200
C1798       C  0.63037983  0.11277418  0.86158377    -0.09300
C1799       C  0.63977301  0.09667872  0.85025403    -0.18100
C1800       C  0.63660514  0.09465949  0.82848626     0.04300
C1801       C  0.62295767  0.10911769  0.81866712     0.18500
C1802       C  0.61373445  0.12537547  0.83022727    -0.19500
C1803       C  0.61850653  0.10727213  0.79729283    -0.20800
C1804       C  0.62769642  0.09162766  0.78532529    -0.19300
C1805       C  0.64177008  0.07756707  0.79436063     0.19900
C1806       C  0.64642730  0.07882981  0.81610681     0.02000
C1807       C  0.66118836  0.06457933  0.82434127    -0.14100
C1808       C  0.67127580  0.05017002  0.81141358    -0.11800
C1809       C  0.66669460  0.04917609  0.79007770     0.01500
C1810       C  0.65172645  0.06263736  0.78163856    -0.23900
H1811       H  0.63311931  0.11355136  0.87829006     0.09500
H1812       H  0.64926131  0.08594325  0.85907455     0.13100
H1813       H  0.60295140  0.13558001  0.82220419     0.11800
H1814       H  0.60794058  0.11811771  0.78971869     0.13000
H1815       H  0.62406058  0.09076466  0.76878810     0.12100
H1816       H  0.66578599  0.06459536  0.84054837     0.09100
H1817       H  0.68306913  0.03999214  0.81803611     0.12400
H1818       H  0.64851433  0.06207017  0.76498705     0.14300
C1819       C  0.62353532  0.15881359  0.87723816    -0.01200
C1820       C  0.61663176  0.17469027  0.89087951    -0.09300
C1821       C  0.63066222  0.18630333  0.90293855    -0.18100
C1822       C  0.65241121  0.18291250  0.90144741     0.04300
C1823       C  0.65953352  0.16842728  0.88620361     0.18500
C1824       C  0.64526490  0.15699043  0.87409943    -0.19500
C1825       C  0.68093421  0.16506350  0.88334544    -0.20800
C1826       C  0.69545635  0.17522652  0.89583381    -0.19300
C1827       C  0.68896470  0.18890497  0.91162098     0.19900
C1828       C  0.66735741  0.19312382  0.91459735     0.02000
C1829       C  0.66169766  0.20670585  0.93113521    -0.14100
C1830       C  0.67677644  0.21490161  0.94466444    -0.11800
C1831       C  0.69798926  0.21028040  0.94191210     0.01500
C1832       C  0.70398144  0.19774991  0.92496348    -0.23900
H1833       H  0.60007363  0.17750721  0.89283711     0.09500
H1834       H  0.62399194  0.19768956  0.91341493     0.13100
H1835       H  0.65144935  0.14666021  0.86225447     0.11800
H1836       H  0.68649361  0.15416290  0.87161368     0.13000
H1837       H  0.71188663  0.17195118  0.89346169     0.12100
H1838       H  0.64569878  0.21069417  0.93447434     0.09100
H1839       H  0.67175774  0.22458328  0.95763229     0.12400
H1840       H  0.72032692  0.19387138  0.92284451     0.14300
C1841       C  0.53363037  0.06416000  0.94531174    -0.01200
C1842       C  0.54587583  0.07957214  0.95482944    -0.09300
C1843       C  0.55748742  0.09351702  0.94281948    -0.18100
C1844       C  0.55704371  0.09264761  0.92072549     0.04300
C1845       C  0.54374005  0.07769750  0.91113986     0.18500
C1846       C  0.53250707  0.06341614  0.92343023    -0.19500
C1847       C  0.54179210  0.07706500  0.88934321    -0.20800
C1848       C  0.55284649  0.09093588  0.87684174    -0.19300
C1849       C  0.56665365  0.10530902  0.88578664     0.19900
C1850       C  0.56923741  0.10610742  0.90780575     0.02000
C1851       C  0.58449285  0.11974982  0.91588598    -0.14100
C1852       C  0.59644011  0.13230737  0.90271959    -0.11800
C1853       C  0.59321648  0.13254148  0.88087568     0.01500
C1854       C  0.57827337  0.11853345  0.87274445    -0.23900
H1855       H  0.54689968  0.08056433  0.97171801     0.09500
H1856       H  0.56648230  0.10493193  0.95128796     0.13100
H1857       H  0.52279054  0.05175538  0.91594852     0.11800
H1858       H  0.53155417  0.06584135  0.88191186     0.13000
H1859       H  0.55089413  0.09012947  0.86001853     0.12100
H1860       H  0.58822773  0.12042362  0.93231036     0.09100
H1861       H  0.60871222  0.14116006  0.91005652     0.12400
H1862       H  0.57605555  0.11763052  0.85595106     0.14300
C1863       C  0.59453905  0.16066466  0.85176331    -0.01200
C1864       C  0.60541161  0.17331693  0.83744756     0.00300
C1865       C  0.59500764  0.18675578  0.82382741    -0.18100
C1866       C  0.57301630  0.18801048  0.82364784     0.04300
C1867       C  0.56189704  0.17579747  0.83842374     0.18500
C1868       C  0.57264740  0.16301557  0.85275313    -0.19500
C1869       C  0.54003468  0.17592791  0.83841787    -0.20800
C1870       C  0.52899015  0.18732520  0.82354239    -0.19300
C1871       C  0.53949966  0.19940038  0.80867125     0.19900
C1872       C  0.56165839  0.20043452  0.80893396     0.02000
C1873       C  0.57147821  0.21363115  0.79424055    -0.14100
C1874       C  0.55989464  0.22439997  0.77923408    -0.11800
C1875       C  0.53812333  0.22248464  0.77824284     0.01500
C1876       C  0.52799699  0.21022755  0.79333590    -0.23900
H1877       H  0.62225341  0.17232635  0.83640299     0.09500
H1878       H  0.60466049  0.19539777  0.81312538     0.13100
H1879       H  0.56360982  0.15467193  0.86426319     0.11800
H1880       H  0.53139923  0.16664343  0.84961013     0.13000
H1881       H  0.51209768  0.18659304  0.82360229     0.12100
H1882       H  0.58811566  0.21594503  0.79386650     0.09100
H1883       H  0.56817768  0.23401198  0.76806973     0.12400
H1884       H  0.51114396  0.20885123  0.79300207     0.14300
C1885       C  0.37761227  0.12658465  0.07843769    -0.01200
C1886       C  0.39114710  0.13649634  0.06425109    -0.09300
C1887       C  0.40307549  0.12482134  0.05013238    -0.18100
C1888       C  0.40091212  0.10291756  0.04898156     0.04300
C1889       C  0.38412105  0.09370352  0.06003457     0.18500
C1890       C  0.37249469  0.10556504  0.07431778    -0.19500
C1891       C  0.37976206  0.07244447  0.05764769    -0.20800
C1892       C  0.39280089  0.05979033  0.04575655    -0.19300
C1893       C  0.41082646  0.06800797  0.03658905     0.19900
C1894       C  0.41505240  0.08974570  0.03784362     0.02000
C1895       C  0.43400817  0.09708071  0.02928953    -0.14100
C1896       C  0.44848690  0.08325795  0.02055546    -0.11800
C1897       C  0.44434362  0.06182029  0.01961259     0.01500
C1898       C  0.42517880  0.05442094  0.02711460    -0.23900
H1899       H  0.39392883  0.15312157  0.06544612     0.09500
H1900       H  0.41416001  0.13322241  0.04066223     0.13100
H1901       H  0.36005754  0.09794846  0.08280959     0.11800
H1902       H  0.36660555  0.06541825  0.06560626     0.13000
H1903       H  0.38936571  0.04326964  0.04466844     0.12100
H1904       H  0.43849768  0.11327259  0.03004693     0.09100
H1905       H  0.46313623  0.08936812  0.01477728     0.12400
H1906       H  0.42184961  0.03784278  0.02658773     0.14300
C1907       C  0.35426924  0.15596240  0.08782661    -0.01200
C1908       C  0.35957724  0.17733582  0.08875055    -0.09300
C1909       C  0.34687588  0.19266121  0.08011493    -0.18100
C1910       C  0.32844853  0.18744555  0.06937624     0.04300
C1911       C  0.32375325  0.16595907  0.06672999     0.18500
C1912       C  0.33661894  0.15054482  0.07580757    -0.19500
C1913       C  0.30639011  0.16004803  0.05481653    -0.20800
C1914       C  0.29385334  0.17505249  0.04520859    -0.19300
C1915       C  0.29798186  0.19636408  0.04781035     0.19900
C1916       C  0.31498826  0.20284370  0.06050998     0.02000
C1917       C  0.31768213  0.22448212  0.06398885    -0.14100
C1918       C  0.30456547  0.23905887  0.05456234    -0.11800
C1919       C  0.28861125  0.23265443  0.04116411     0.01500
C1920       C  0.28523905  0.21130680  0.03786460    -0.23900
H1921       H  0.37397793  0.18268792  0.09564762     0.09500
H1922       H  0.35236845  0.20848514  0.08148831     0.13100
H1923       H  0.33287523  0.13419596  0.07361411     0.11800
H1924       H  0.30266608  0.14370019  0.05264062     0.13000
H1925       H  0.28075387  0.16995487  0.03579511     0.12100
H1926       H  0.32953926  0.23064811  0.07420470     0.09100
H1927       H  0.30712413  0.25552309  0.05747241     0.12400
H1928       H  0.27253346  0.20637432  0.02782030     0.14300
C1929       C  0.46700684  0.95247716  0.04130125    -0.01200
C1930       C  0.47876983  0.93786703  0.05259508    -0.09300
C1931       C  0.46894699  0.92293818  0.06515164    -0.18100
C1932       C  0.44693718  0.92228793  0.06690406     0.04300
C1933       C  0.43517011  0.93727216  0.05549971     0.18500
C1934       C  0.44519195  0.95188713  0.04274927    -0.19500
C1935       C  0.41342428  0.93790934  0.05715239    -0.20800
C1936       C  0.40306901  0.92437892  0.07046765    -0.19300
C1937       C  0.41417231  0.90955224  0.08203501     0.19900
C1938       C  0.43615090  0.90779110  0.07998404     0.02000
C1939       C  0.44624741  0.89159581  0.09109612    -0.14100
C1940       C  0.43514982  0.87865315  0.10475691    -0.11800
C1941       C  0.41369698  0.88182291  0.10838821     0.01500
C1942       C  0.40333589  0.89674426  0.09597692    -0.23900
H1943       H  0.49564805  0.93798897  0.05178853     0.09500
H1944       H  0.47897955  0.91240798  0.07363509     0.13100
H1945       H  0.43585803  0.96312979  0.03418105     0.11800
H1946       H  0.40438816  0.94927899  0.04844657     0.13000
H1947       H  0.38625216  0.92560870  0.07182424     0.12100
H1948       H  0.46269259  0.88845357  0.08941524     0.09100
H1949       H  0.44365442  0.86629347  0.11245657     0.12400
H1950       H  0.38666508  0.89894941  0.09787575     0.14300
C1951       C  0.41389847  0.85456422  0.13839459    -0.01200
C1952       C  0.40821530  0.83354999  0.14159573    -0.09300
C1953       C  0.41860285  0.82104112  0.15610412    -0.18100
C1954       C  0.43481808  0.82911715  0.16862382     0.04300
C1955       C  0.44081849  0.85018120  0.16534233     0.18500
C1956       C  0.43038835  0.86254066  0.15056840    -0.19500
C1957       C  0.45671984  0.85908741  0.17735967    -0.20800
C1958       C  0.46628759  0.84773041  0.19316787    -0.19300
C1959       C  0.46015870  0.82720758  0.19734720     0.19900
C1960       C  0.44465188  0.81739357  0.18489836     0.02000
C1961       C  0.43928771  0.79651198  0.18973586    -0.14100
C1962       C  0.44831109  0.78619593  0.20675916    -0.11800
C1963       C  0.46299131  0.79626715  0.21943766     0.01500
C1964       C  0.46912847  0.81664066  0.21430247    -0.23900
H1965       H  0.39496528  0.82666218  0.13382191     0.09500
H1966       H  0.41300466  0.80528257  0.15766487     0.13100
H1967       H  0.43464422  0.87883073  0.14897749     0.11800
H1968       H  0.46148373  0.87510595  0.17482055     0.13000
H1969       H  0.47825835  0.85521397  0.20249453     0.12100
H1970       H  0.42797588  0.78779549  0.18086524     0.09100
H1971       H  0.44347489  0.77038610  0.21021369     0.12400
H1972       H  0.48074465  0.82452562  0.22375949     0.14300
C1973       C  0.64640490  0.88826783  0.88186766    -0.01200
C1974       C  0.63477167  0.90002458  0.86738763    -0.09300
C1975       C  0.64445069  0.91190090  0.85208749    -0.18100
C1976       C  0.66637231  0.91313234  0.85094145     0.04300
C1977       C  0.67822554  0.90387007  0.86716813     0.18500
C1978       C  0.66824491  0.89154944  0.88247973    -0.19500
C1979       C  0.69990469  0.90696053  0.86781171    -0.20800
C1980       C  0.70988822  0.91911120  0.85263956    -0.19300
C1981       C  0.69859802  0.92761024  0.83587625     0.19900
C1982       C  0.67677683  0.92386637  0.83451876     0.02000
C1983       C  0.66617102  0.93053406  0.81648161    -0.14100
C1984       C  0.67623616  0.94223423  0.80138208    -0.11800
C1985       C  0.69726531  0.94799284  0.80354025     0.01500
C1986       C  0.70870172  0.93994966  0.82051666    -0.23900
H1987       H  0.61790725  0.89905390  0.86715849     0.09500
H1988       H  0.63431138  0.92016945  0.84147243     0.13100
H1989       H  0.67764923  0.88455198  0.89464383     0.11800
H1990       H  0.70915312  0.90017166  0.88026496     0.13000
H1991       H  0.72656379  0.92158117  0.85383795     0.12100
H1992       H  0.65008107  0.92668223  0.81343885     0.09100
H1993       H  0.66714692  0.94721293  0.78798470     0.12400
H1994       H  0.72510219  0.94371674  0.82208711     0.14300
C1995       C  0.61910802  0.88690981  0.90894027    -0.01200
C1996       C  0.59748318  0.88714894  0.90481791    -0.09300
C1997       C  0.58389558  0.89981523  0.91599845    -0.18100
C1998       C  0.59122977  0.91344135  0.93163583     0.04300
C1999       C  0.61308532  0.91440779  0.93510344     0.18500
C2000       C  0.62674455  0.90161619  0.92348497    -0.19500
C2001       C  0.62113358  0.92820861  0.95006652    -0.20800
C2002       C  0.60789586  0.94114070  0.96156981    -0.19300
C2003       C  0.58628411  0.94060949  0.95837287     0.19900
C2004       C  0.57764551  0.92659609  0.94343383     0.02000
C2005       C  0.55575315  0.92655977  0.94069648    -0.14100
C2006       C  0.54315545  0.94060387  0.95142247    -0.11800
C2007       C  0.55174492  0.95466527  0.96566869     0.01500
C2008       C  0.57322793  0.95436099  0.96957215    -0.23900
H2009       H  0.59065733  0.87806922  0.89234895     0.09500
H2010       H  0.56771776  0.89877658  0.91161120     0.13100
H2011       H  0.64342861  0.90272960  0.92604078     0.11800
H2012       H  0.63779114  0.92907198  0.95283219     0.13000
H2013       H  0.61462497  0.95176834  0.97289922     0.12100
H2014       H  0.54780513  0.91614678  0.93016607     0.09100
H2015       H  0.52650851  0.94065372  0.94839956     0.12400
H2016       H  0.57983168  0.96542755  0.98056336     0.14300
C2017       C  0.38278664  0.91739955  0.87235469    -0.01200
C2018       C  0.37419617  0.93347157  0.88478654    -0.09300
C2019       C  0.38664719  0.94661283  0.89687422    -0.18100
C2020       C  0.40853197  0.94428343  0.89727552     0.04300
C2021       C  0.41741214  0.92807741  0.88495654     0.18500
C2022       C  0.40461030  0.91451476  0.87332013    -0.19500
C2023       C  0.43909246  0.92535310  0.88442865    -0.20800
C2024       C  0.45214166  0.93827877  0.89600137    -0.19300
C2025       C  0.44383819  0.95392038  0.90885745     0.19900
C2026       C  0.42189302  0.95713906  0.90976142     0.02000
C2027       C  0.41429244  0.97263682  0.92362793    -0.14100
C2028       C  0.42783630  0.98378248  0.93660990    -0.11800
C2029       C  0.44939813  0.98036842  0.93580614     0.01500
C2030       C  0.45733531  0.96582044  0.92145195    -0.23900
H2031       H  0.35747955  0.93596744  0.88504354     0.09500
H2032       H  0.37861215  0.95853974  0.90563177     0.13100
H2033       H  0.41198027  0.90152715  0.86549266     0.11800
H2034       H  0.44603329  0.91313805  0.87495299     0.13000
H2035       H  0.46884328  0.93569520  0.89526328     0.12100
H2036       H  0.39791909  0.97604648  0.92534411     0.09100
H2037       H  0.42136748  0.99494243  0.94759411     0.12400
H2038       H  0.47399757  0.96286941  0.92095836     0.14300
C2039       C  0.27541682  0.96766308  0.78600740    -0.01200
C2040       C  0.29072224  0.97948533  0.79623787    -0.09300
C2041       C  0.30757704  0.96980731  0.80618901    -0.18100
C2042       C  0.30958267  0.94782215  0.80641876     0.04300
C2043       C  0.29409736  0.93590363  0.79591976     0.18500
C2044       C  0.27749584  0.94585405  0.78559927    -0.19500
C2045       C  0.29485652  0.91407672  0.79638256    -0.20800
C2046       C  0.31003154  0.90381055  0.80802602    -0.19300
C2047       C  0.32519732  0.91511779  0.81893424     0.19900
C2048       C  0.32579955  0.93719827  0.81749806     0.02000
C2049       C  0.34251083  0.94762428  0.82737282    -0.14100
C2050       C  0.35680191  0.93678430  0.83982259    -0.11800
C2051       C  0.35453132  0.91523942  0.84359968     0.01500
C2052       C  0.33937154  0.90447075  0.83181236    -0.23900
H2053       H  0.28954663  0.99633888  0.79683423     0.09500
H2054       H  0.31839389  0.97991189  0.81417833     0.13100
H2055       H  0.26577414  0.93647384  0.77779850     0.11800
H2056       H  0.28318568  0.90488338  0.78829811     0.13000
H2057       H  0.30972308  0.88691533  0.80874279     0.12100
H2058       H  0.34498749  0.96417261  0.82568455     0.09100
H2059       H  0.36938433  0.94565349  0.84665292     0.12400
H2060       H  0.33790474  0.88771879  0.83358736     0.14300
C2061       C  0.21921489  0.72604724  0.03549761    -0.01200
C2062       C  0.20628385  0.71263922  0.02412534    -0.09300
C2063       C  0.19547993  0.69660218  0.03410007    -0.18100
C2064       C  0.19673840  0.69399435  0.05602340     0.04300
C2065       C  0.20977128  0.70783939  0.06750398     0.18500
C2066       C  0.22140166  0.72323182  0.05708714    -0.19500
C2067       C  0.21027847  0.70690491  0.08937351    -0.20800
C2068       C  0.19721625  0.69331776  0.10012528    -0.19300
C2069       C  0.18407966  0.67966830  0.08922948     0.19900
C2070       C  0.18453774  0.67900738  0.06707073     0.02000
C2071       C  0.17263799  0.66347493  0.05695768    -0.14100
C2072       C  0.15930283  0.65047323  0.06825425    -0.11800
C2073       C  0.15659579  0.65302791  0.08999132     0.01500
C2074       C  0.17009596  0.66702462  0.10035161    -0.23900
H2075       H  0.20434570  0.71475139  0.00742131     0.09500
H2076       H  0.18543532  0.68719006  0.02441344     0.13100
H2077       H  0.23112473  0.73389937  0.06593685     0.11800
H2078       H  0.22015576  0.71738659  0.09824836     0.13000
H2079       H  0.19726159  0.69360927  0.11707747     0.12100
H2080       H  0.17354843  0.66083601  0.04031687     0.09100
H2081       H  0.15103176  0.63864094  0.05957777     0.12400
H2082       H  0.16912267  0.66859819  0.11721098     0.14300
C2083       C  0.30894772  0.80365377  0.05111612    -0.01200
C2084       C  0.30228340  0.81712146  0.06697376    -0.09300
C2085       C  0.31653986  0.82711108  0.07986333    -0.18100
C2086       C  0.33818508  0.82433474  0.07696534     0.04300
C2087       C  0.34496973  0.80930464  0.06202784     0.18500
C2088       C  0.33027539  0.79905260  0.04915021    -0.19500
C2089       C  0.36634394  0.80523129  0.05969584    -0.20800
C2090       C  0.38102923  0.81597195  0.07170493    -0.19300
C2091       C  0.37473547  0.83150188  0.08585339     0.19900
C2092       C  0.35323918  0.83612253  0.08831501     0.02000
C2093       C  0.34767774  0.85306481  0.10126954    -0.14100
C2094       C  0.36264071  0.86402950  0.11249473    -0.11800
C2095       C  0.38384059  0.85826369  0.11191074     0.01500
C2096       C  0.38974583  0.84261255  0.09745174    -0.23900
H2097       H  0.28581805  0.82050888  0.06894827     0.09500
H2098       H  0.31009750  0.83709841  0.09181177     0.13100
H2099       H  0.33546952  0.78852983  0.03691290     0.11800
H2100       H  0.37173369  0.79370899  0.04850175     0.13000
H2101       H  0.39742959  0.81238445  0.06962849     0.12100
H2102       H  0.33189193  0.85874642  0.10254473     0.09100
H2103       H  0.35727733  0.87744909  0.12119979     0.12400
H2104       H  0.40614132  0.83882425  0.09562076     0.14300
C2105       C  0.19439540  0.80085913  0.94212351    -0.01200
C2106       C  0.17329683  0.79663198  0.94599715    -0.09300
C2107       C  0.15762093  0.80527917  0.93346782    -0.18100
C2108       C  0.16253572  0.81884558  0.91673343     0.04300
C2109       C  0.18399226  0.82270763  0.91258734     0.18500
C2110       C  0.19960667  0.81354524  0.92504857    -0.19500
C2111       C  0.18976005  0.83621057  0.89641376    -0.20800
C2112       C  0.17468521  0.84638277  0.88455059    -0.19300
C2113       C  0.15342821  0.84333101  0.88853668     0.19900
C2114       C  0.14701053  0.82923310  0.90439355     0.02000
C2115       C  0.12535059  0.82632465  0.90725297    -0.14100
C2116       C  0.11080437  0.83792572  0.89581814    -0.11800
C2117       C  0.11706904  0.85321634  0.88129970     0.01500
C2118       C  0.13860520  0.85462209  0.87689863    -0.23900
H2119       H  0.16883036  0.78686460  0.95906290     0.09500
H2120       H  0.14179222  0.80149885  0.93765067     0.13100
H2121       H  0.21585765  0.81712510  0.92202004     0.11800
H2122       H  0.20607162  0.83922802  0.89314955     0.13000
H2123       H  0.17971363  0.85703267  0.87240201     0.12100
H2124       H  0.11912345  0.81534775  0.91835905     0.09100
H2125       H  0.09435978  0.83544598  0.89881575     0.12400
H2126       H  0.14418073  0.86438768  0.86434175     0.14300
C2127       C  0.29276309  0.84192341  0.95435016    -0.01200
C2128       C  0.28359750  0.85836391  0.94337189    -0.09300
C2129       C  0.29525792  0.86987487  0.92898945    -0.18100
C2130       C  0.31657714  0.86524246  0.92532985     0.04300
C2131       C  0.32604604  0.84938265  0.93766873     0.18500
C2132       C  0.31402102  0.83769889  0.95176566    -0.19500
C2133       C  0.34732154  0.84493473  0.93548140    -0.20800
C2134       C  0.35934563  0.85555664  0.92087718    -0.19300
C2135       C  0.35024050  0.87040903  0.90766732     0.19900
C2136       C  0.32873660  0.87542724  0.90964340     0.02000
C2137       C  0.32023567  0.89002302  0.89548201    -0.14100
C2138       C  0.33236199  0.89875390  0.87964353    -0.11800
C2139       C  0.35355856  0.89332531  0.87711768     0.01500
C2140       C  0.36245560  0.87988305  0.89212762    -0.23900
H2141       H  0.26713350  0.86173954  0.94528015     0.09500
H2142       H  0.28708332  0.88211384  0.92083673     0.13100
H2143       H  0.32107330  0.82496034  0.96043160     0.11800
H2144       H  0.35468140  0.83304603  0.94502608     0.13000
H2145       H  0.37575431  0.85167129  0.91947712     0.12100
H2146       H  0.30412411  0.89481804  0.89599363     0.09100
H2147       H  0.32489752  0.91017472  0.86972296     0.12400
H2148       H  0.37893532  0.87614384  0.89108337     0.14300
C2149       C  0.20599521  0.83442630  0.04485429    -0.01200
C2150       C  0.18444307  0.83112939  0.04619740    -0.09300
C2151       C  0.17240453  0.84153781  0.06114840    -0.18100
C2152       C  0.18163969  0.85543652  0.07563718     0.04300
C2153       C  0.20357057  0.85857739  0.07434949     0.18500
C2154       C  0.21543059  0.84834916  0.05888579    -0.19500
C2155       C  0.21358098  0.87171754  0.08866473    -0.20800
C2156       C  0.20228160  0.88189657  0.10421055    -0.19300
C2157       C  0.18060478  0.87954250  0.10560539     0.19900
C2158       C  0.16995721  0.86631798  0.09133070     0.02000
C2159       C  0.14807488  0.86473686  0.09329058    -0.14100
C2160       C  0.13718819  0.87663871  0.10797864    -0.11800
C2161       C  0.14749825  0.89060646  0.12152926     0.01500
C2162       C  0.16951804  0.89081854  0.12090619    -0.23900
H2163       H  0.17678899  0.82041895  0.03556743     0.09500
H2164       H  0.15595493  0.83814322  0.06109742     0.13100
H2165       H  0.23215607  0.85077352  0.05816878     0.11800
H2166       H  0.23029937  0.87409992  0.08787450     0.13000
H2167       H  0.21053316  0.89200042  0.11499989     0.12100
H2168       H  0.13878018  0.85492691  0.08328489     0.09100
H2169       H  0.12032344  0.87560809  0.10816655     0.12400
H2170       H  0.17836434  0.90014507  0.13180600     0.14300
C2171       C  0.14808675  0.91907458  0.15010237    -0.01200
C2172       C  0.14836958  0.91727145  0.17208765    -0.09300
C2173       C  0.16262496  0.92850404  0.18425268    -0.18100
C2174       C  0.17673501  0.94269288  0.17505116     0.04300
C2175       C  0.17483136  0.94642730  0.15328113     0.18500
C2176       C  0.16088375  0.93463126  0.14114813    -0.19500
C2177       C  0.18717049  0.96164252  0.14363628    -0.20800
C2178       C  0.20186769  0.97280163  0.15509057    -0.19300
C2179       C  0.20515164  0.96846458  0.17629677     0.19900
C2180       C  0.19270528  0.95324113  0.18658235     0.02000
C2181       C  0.19746752  0.94853026  0.20765939    -0.14100
C2182       C  0.21412642  0.95821242  0.21789694    -0.11800
C2183       C  0.22623087  0.97330669  0.20775606     0.01500
C2184       C  0.22133146  0.97871205  0.18708068    -0.23900
H2185       H  0.13780542  0.90708876  0.18029195     0.09500
H2186       H  0.16207047  0.92595223  0.20091230     0.13100
H2187       H  0.16045382  0.93708302  0.12437844     0.11800
H2188       H  0.18554610  0.96483952  0.12707044     0.13000
H2189       H  0.21124358  0.98438764  0.14712280     0.12100
H2190       H  0.18910680  0.93684297  0.21638634     0.09100
H2191       H  0.21759258  0.95383082  0.23388955     0.12400
H2192       H  0.23077493  0.99021477  0.17905032     0.14300
C2193       C  0.35731611  0.12369766  0.11267745    -0.01200
C2194       C  0.36951178  0.10809046  0.12226988    -0.09300
C2195       C  0.36124055  0.09454026  0.13700618    -0.18100
C2196       C  0.34011212  0.09582800  0.14299327     0.04300
C2197       C  0.32738389  0.11100561  0.13301884     0.18500
C2198       C  0.33610274  0.12511314  0.11850125    -0.19500
C2199       C  0.30602162  0.11198158  0.13766183    -0.20800
C2200       C  0.29711067  0.09825147  0.15203178    -0.19300
C2201       C  0.30944212  0.08364273  0.16269103     0.19900
C2202       C  0.33121067  0.08251116  0.15849566     0.02000
C2203       C  0.34329473  0.06838463  0.17031148    -0.14100
C2204       C  0.33416901  0.05562038  0.18526476    -0.11800
C2205       C  0.31261839  0.05624811  0.18917399     0.01500
C2206       C  0.30027851  0.07035799  0.17774736    -0.23900
H2207       H  0.38586234  0.10643125  0.11827316     0.09500
H2208       H  0.37183420  0.08302470  0.14316362     0.13100
H2209       H  0.32623270  0.13722981  0.11217549     0.11800
H2210       H  0.29608236  0.12333081  0.12998436     0.13000
H2211       H  0.28051312  0.09931815  0.15509501     0.12100
H2212       H  0.35996921  0.06704978  0.16873698     0.09100
H2213       H  0.34428505  0.04514988  0.19388634     0.12400
H2214       H  0.28365686  0.07123205  0.18075991     0.14300
C2215       C  0.29746911  0.95628754  0.30869760    -0.01200
C2216       C  0.29408152  0.93470730  0.30758570    -0.09300
C2217       C  0.30262629  0.92124287  0.32257143    -0.18100
C2218       C  0.31527181  0.92895169  0.33901616     0.04300
C2219       C  0.31823162  0.95090217  0.34028090     0.18500
C2220       C  0.30914607  0.96424625  0.32544516    -0.19500
C2221       C  0.33082185  0.95944572  0.35595780    -0.20800
C2222       C  0.34092774  0.94663784  0.37023454    -0.19300
C2223       C  0.33849848  0.92495348  0.36939583     0.19900
C2224       C  0.32548835  0.91576408  0.35395134     0.02000
C2225       C  0.32378468  0.89379360  0.35384413    -0.14100
C2226       C  0.33443066  0.88159164  0.36850543    -0.11800
C2227       C  0.34701466  0.89059794  0.38419173     0.01500
C2228       C  0.34936217  0.91248141  0.38381661    -0.23900
H2229       H  0.28510261  0.92812801  0.29483799     0.09500
H2230       H  0.29945592  0.90485636  0.32057382     0.13100
H2231       H  0.31205295  0.98088403  0.32643477     0.11800
H2232       H  0.33316012  0.97616434  0.35698040     0.13000
H2233       H  0.35078684  0.95377180  0.38200826     0.12100
H2234       H  0.31444375  0.88553134  0.34254714     0.09100
H2235       H  0.33285010  0.86478391  0.36762535     0.12400
H2236       H  0.36019778  0.92017948  0.39415154     0.14300
C2237       C  0.39114103  0.88510716  0.14124486    -0.01200
C2238       C  0.39751851  0.90608469  0.14310654    -0.09300
C2239       C  0.38830394  0.91954840  0.15757445    -0.18100
C2240       C  0.37222799  0.91267613  0.17097518     0.04300
C2241       C  0.36653747  0.89129846  0.17004611     0.18500
C2242       C  0.37659837  0.87769150  0.15602628    -0.19500
C2243       C  0.35039662  0.88373506  0.18267492    -0.20800
C2244       C  0.33925239  0.89715170  0.19567783    -0.19300
C2245       C  0.34433464  0.91836142  0.19678901     0.19900
C2246       C  0.36131747  0.92631293  0.18493009     0.02000
C2247       C  0.36639410  0.94764789  0.18731642    -0.14100
C2248       C  0.35456936  0.96067909  0.20019831    -0.11800
C2249       C  0.33719087  0.95304117  0.21101864     0.01500
C2250       C  0.33234357  0.93175307  0.20947245    -0.23900
H2251       H  0.40993546  0.91237345  0.13359859     0.09500
H2252       H  0.39391331  0.93537822  0.15757382     0.13100
H2253       H  0.37224186  0.86135101  0.15573600     0.11800
H2254       H  0.34596491  0.86743218  0.18205552     0.13000
H2255       H  0.32647502  0.89091544  0.20482940     0.12100
H2256       H  0.37933990  0.95481631  0.17937014     0.09100
H2257       H  0.35875835  0.97701852  0.20120903     0.12400
H2258       H  0.31911678  0.92560659  0.21804083     0.14300
C2259       C  0.33987281  0.05272530  0.28714938    -0.01200
C2260       C  0.35810353  0.04612949  0.29716552    -0.09300
C2261       C  0.37016171  0.06026529  0.30864017    -0.18100
C2262       C  0.36447065  0.08160812  0.31001187     0.04300
C2263       C  0.34685817  0.08841936  0.29834529     0.18500
C2264       C  0.33449541  0.07391172  0.28749265    -0.19500
C2265       C  0.34153541  0.10961578  0.29783545    -0.20800
C2266       C  0.35296927  0.12416032  0.30921933    -0.19300
C2267       C  0.36940088  0.11773638  0.32213548     0.19900
C2268       C  0.37530973  0.09636659  0.32279402     0.02000
C2269       C  0.39129798  0.09059260  0.33678364    -0.14100
C2270       C  0.40006984  0.10510696  0.35045583    -0.11800
C2271       C  0.39345347  0.12616960  0.35079734     0.01500
C2272       C  0.37935168  0.13245098  0.33507239    -0.23900
H2273       H  0.36265010  0.02984124  0.29669738     0.09500
H2274       H  0.38383934  0.05404338  0.31621984     0.13100
H2275       H  0.32063093  0.07908914  0.27924475     0.11800
H2276       H  0.32835539  0.11497036  0.28865870     0.13000
H2277       H  0.34835034  0.14042877  0.30860868     0.12100
H2278       H  0.39693616  0.07479035  0.33804325     0.09100
H2279       H  0.41237222  0.09950700  0.36055554     0.12400
H2280       H  0.37499889  0.14877593  0.33397699     0.14300
C2281       C  0.53326409  0.78895004  0.71943370    -0.01200
C2282       C  0.52202140  0.80391907  0.70817795    -0.09300
C2283       C  0.53137982  0.81498029  0.69192460    -0.18100
C2284       C  0.55263290  0.81182371  0.68683207     0.04300
C2285       C  0.56392055  0.79647708  0.69830293     0.18500
C2286       C  0.55404826  0.78489953  0.71409800    -0.19500
C2287       C  0.58518299  0.79331606  0.69447779    -0.20800
C2288       C  0.59568503  0.80557066  0.67999909    -0.19300
C2289       C  0.58507577  0.82094885  0.66864663     0.19900
C2290       C  0.56330738  0.82389656  0.67141067     0.02000
C2291       C  0.55334742  0.83926451  0.65909855    -0.14100
C2292       C  0.56466195  0.85180820  0.64534564    -0.11800
C2293       C  0.58639549  0.84940262  0.64298877     0.01500
C2294       C  0.59630221  0.83379608  0.65496052    -0.23900
H2295       H  0.50588095  0.80716769  0.71206620     0.09500
H2296       H  0.52172292  0.82632921  0.68411883     0.13100
H2297       H  0.56284304  0.77346399  0.72298294     0.11800
H2298       H  0.59388632  0.78167998  0.70316597     0.13000
H2299       H  0.61228426  0.80313815  0.67781390     0.12100
H2300       H  0.53683788  0.84230491  0.66001595     0.09100
H2301       H  0.55620182  0.86410423  0.63751673     0.12400
H2302       H  0.61310327  0.83201796  0.65390421     0.14300
C2303       C  0.44055004  0.80964675  0.79391097    -0.01200
C2304       C  0.42225105  0.80315746  0.80396145    -0.09300
C2305       C  0.40868624  0.81764888  0.81306263    -0.18100
C2306       C  0.41293206  0.83929678  0.81231119     0.04300
C2307       C  0.43067769  0.84590322  0.80076767     0.18500
C2308       C  0.44435856  0.83112175  0.79190562    -0.19500
C2309       C  0.43496531  0.86721515  0.79863250    -0.20800
C2310       C  0.42239949  0.88210737  0.80832044    -0.19300
C2311       C  0.40560403  0.87604714  0.82090976     0.19900
C2312       C  0.40058504  0.85457354  0.82302287     0.02000
C2313       C  0.38379763  0.84930810  0.83625270    -0.14100
C2314       C  0.37332303  0.86452023  0.84784635    -0.11800
C2315       C  0.37906585  0.88576209  0.84690675     0.01500
C2316       C  0.39424312  0.89132214  0.83196092    -0.23900
H2317       H  0.41878778  0.78670052  0.80558716     0.09500
H2318       H  0.39517436  0.81136844  0.82082534     0.13100
H2319       H  0.45828579  0.83636014  0.78386094     0.11800
H2320       H  0.44829822  0.87240240  0.78961777     0.13000
H2321       H  0.42630762  0.89845864  0.80655826     0.12100
H2322       H  0.37858696  0.83347715  0.83834142     0.09100
H2323       H  0.36034434  0.85932303  0.85725176     0.12400
H2324       H  0.39800592  0.90767266  0.82982432     0.14300
C2325       C  0.54514742  0.79924367  0.82810827    -0.01200
C2326       C  0.55879033  0.81228647  0.81710752    -0.09300
C2327       C  0.57496191  0.82260179  0.82733882    -0.18100
C2328       C  0.57789404  0.82041791  0.84912639     0.04300
C2329       C  0.56351309  0.80787649  0.86041566     0.18500
C2330       C  0.54759440  0.79710285  0.84980826    -0.19500
C2331       C  0.56497647  0.80642254  0.88222629    -0.20800
C2332       C  0.58003543  0.81770445  0.89310107    -0.19300
C2333       C  0.59441799  0.83013916  0.88235486     0.19900
C2334       C  0.59408158  0.83093709  0.86019027     0.02000
C2335       C  0.61001728  0.84220601  0.85004471    -0.14100
C2336       C  0.62397380  0.85441468  0.86140341    -0.11800
C2337       C  0.62221649  0.85636016  0.88328875     0.01500
C2338       C  0.60865746  0.84241924  0.89362836    -0.23900
H2339       H  0.55723605  0.81423554  0.80034725     0.09500
H2340       H  0.58464226  0.83253693  0.81783603     0.13100
H2341       H  0.53695030  0.78723548  0.85848642     0.11800
H2342       H  0.55405298  0.79694602  0.89097638     0.13000
H2343       H  0.58032111  0.81683801  0.91002892     0.12100
H2344       H  0.61209213  0.84187144  0.83330955     0.09100
H2345       H  0.63589311  0.86254402  0.85270682     0.12400
H2346       H  0.60806053  0.84246687  0.91057935     0.14300
C2347       C  0.37239128  0.35409682  0.61021532    -0.01200
C2348       C  0.38417470  0.33913134  0.59904418    -0.09300
C2349       C  0.39812359  0.32570299  0.60919469    -0.18100
C2350       C  0.40045468  0.32626128  0.63114993     0.04300
C2351       C  0.38670996  0.33944384  0.64260130     0.18500
C2352       C  0.37252987  0.35255952  0.63220437    -0.19500
C2353       C  0.38763493  0.34007164  0.66444868    -0.20800
C2354       C  0.40271784  0.32879713  0.67515906    -0.19300
C2355       C  0.41717560  0.31650104  0.66430804     0.19900
C2356       C  0.41604374  0.31457337  0.64219311     0.02000
C2357       C  0.43095105  0.30153738  0.63221187    -0.14100
C2358       C  0.44659182  0.29134834  0.64373873    -0.11800
C2359       C  0.44799621  0.29404244  0.66544478     0.01500
C2360       C  0.43299671  0.30640997  0.67555925    -0.23900
H2361       H  0.38353962  0.33876721  0.58211707     0.09500
H2362       H  0.40723915  0.31545172  0.59940823     0.13100
H2363       H  0.36197832  0.36181795  0.64158485     0.11800
H2364       H  0.37702342  0.34987420  0.67330699     0.13000
H2365       H  0.40336024  0.33007081  0.69205754     0.12100
H2366       H  0.43107819  0.29914716  0.61552087     0.09100
H2367       H  0.45787646  0.28171081  0.63559306     0.12400
H2368       H  0.43363055  0.30825673  0.69241774     0.14300
C2369       C  0.37393588  0.38467804  0.58400952    -0.01200
C2370       C  0.36508912  0.40051696  0.57150680    -0.09300
C2371       C  0.37746370  0.41364738  0.55912474    -0.18100
C2372       C  0.39941551  0.41141935  0.55855373     0.04300
C2373       C  0.40840819  0.39549216  0.57108011     0.18500
C2374       C  0.39592143  0.38311263  0.58412403    -0.19500
C2375       C  0.42995899  0.39193775  0.57065524    -0.20800
C2376       C  0.44286390  0.40392727  0.55808676    -0.19300
C2377       C  0.43467631  0.42028310  0.54616051     0.19900
C2378       C  0.41286751  0.42447028  0.54630031     0.02000
C2379       C  0.40569882  0.44185573  0.53464784    -0.14100
C2380       C  0.41969098  0.45476014  0.52383525    -0.11800
C2381       C  0.44116975  0.45048136  0.52380114     0.01500
C2382       C  0.44839436  0.43289793  0.53465861    -0.23900
H2383       H  0.34832741  0.40269703  0.57131881     0.09500
H2384       H  0.36938643  0.42523074  0.54995555     0.13100
H2385       H  0.40383770  0.37253001  0.59457058     0.11800
H2386       H  0.43690063  0.37965869  0.58002260     0.13000
H2387       H  0.45947046  0.40068691  0.55808772     0.12100
H2388       H  0.38945667  0.44622629  0.53413196     0.09100
H2389       H  0.41368464  0.46828299  0.51564229     0.12400
H2390       H  0.46498408  0.42954490  0.53502631     0.14300
C2391       C  0.52983208  0.44839078  0.44424236    -0.01200
C2392       C  0.52681008  0.44856848  0.42255260    -0.09300
C2393       C  0.53762166  0.43457017  0.40962580    -0.18100
C2394       C  0.55235080  0.42034839  0.41803592     0.04300
C2395       C  0.55559152  0.42063756  0.44004428     0.18500
C2396       C  0.54403675  0.43417768  0.45286857    -0.19500
C2397       C  0.57076096  0.40781541  0.44913130    -0.20800
C2398       C  0.58316673  0.39498629  0.43678499    -0.19300
C2399       C  0.58023639  0.39408993  0.41510365     0.19900
C2400       C  0.56444774  0.40631115  0.40545406     0.02000
C2401       C  0.56174851  0.40414798  0.38364410    -0.14100
C2402       C  0.57446415  0.39075612  0.37194696    -0.11800
C2403       C  0.59044069  0.37878826  0.38130993     0.01500
C2404       C  0.59334278  0.38122304  0.40307160    -0.23900
H2405       H  0.51596186  0.45951975  0.41557497     0.09500
H2406       H  0.53453453  0.43562478  0.39308885     0.13100
H2407       H  0.54673718  0.43424783  0.46962220     0.11800
H2408       H  0.57338138  0.40805664  0.46588168     0.13000
H2409       H  0.59508996  0.38559314  0.44428903     0.12100
H2410       H  0.54990665  0.41258099  0.37515590     0.09100
H2411       H  0.57199667  0.38995851  0.35520707     0.12400
H2412       H  0.60627329  0.37386550  0.41097294     0.14300
C2413       C  0.44700265  0.70393102  0.30282772    -0.01200
C2414       C  0.43776334  0.68944847  0.28923455    -0.09300
C2415       C  0.42579966  0.67283862  0.29711041    -0.18100
C2416       C  0.42275096  0.67022245  0.31893595     0.04300
C2417       C  0.43199584  0.68516064  0.33249435     0.18500
C2418       C  0.44375246  0.70166701  0.32441606    -0.19500
C2419       C  0.42961309  0.68359165  0.35417797    -0.20800
C2420       C  0.41805382  0.66753407  0.36282696    -0.19300
C2421       C  0.40845746  0.65271142  0.35001135     0.19900
C2422       C  0.41072609  0.65362452  0.32792086     0.02000
C2423       C  0.40077704  0.63793599  0.31597652    -0.14100
C2424       C  0.38793647  0.62297374  0.32548964    -0.11800
C2425       C  0.38432789  0.62321028  0.34725926     0.01500
C2426       C  0.39605005  0.63735397  0.35931694    -0.23900
H2427       H  0.44004535  0.69075535  0.27250318     0.09500
H2428       H  0.41919873  0.66225455  0.28579565     0.13100
H2429       H  0.45061807  0.71277600  0.33520497     0.11800
H2430       H  0.43668988  0.69494172  0.36455802     0.13000
H2431       H  0.41635240  0.66689061  0.37968651     0.12100
H2432       H  0.40245628  0.63698913  0.29922154     0.09100
H2433       H  0.38084112  0.61132914  0.31555586     0.12400
H2434       H  0.39435112  0.63725571  0.37619071     0.14300
C2435       C  0.44704930  0.53462924  0.44114493    -0.01200
C2436       C  0.44779398  0.53044158  0.41966594    -0.09300
C2437       C  0.43540144  0.54177768  0.40565835    -0.18100
C2438       C  0.42222892  0.55808518  0.41275823     0.04300
C2439       C  0.42169911  0.56223160  0.43462691     0.18500
C2440       C  0.43382252  0.55040672  0.44850449    -0.19500
C2441       C  0.40924819  0.57832513  0.44257341    -0.20800
C2442       C  0.39691462  0.59020617  0.42931348    -0.19300
C2443       C  0.39673078  0.58629911  0.40777233     0.19900
C2444       C  0.40959013  0.57045843  0.39907248     0.02000
C2445       C  0.40946678  0.56805221  0.37707864    -0.14100
C2446       C  0.39656082  0.58038138  0.36444289    -0.11800
C2447       C  0.38258547  0.59497702  0.37315407     0.01500
C2448       C  0.38374338  0.59835731  0.39494639    -0.23900
H2449       H  0.45795501  0.51828910  0.41369172     0.09500
H2450       H  0.43655017  0.53749650  0.38939260     0.13100
H2451       H  0.43345279  0.55394728  0.46510181     0.11800
H2452       H  0.40897713  0.58170072  0.45919187     0.13000
H2453       H  0.38732592  0.60247348  0.43599613     0.12100
H2454       H  0.41930340  0.55691430  0.36914892     0.09100
H2455       H  0.39717520  0.57824531  0.34764244     0.12400
H2456       H  0.37500961  0.61085464  0.40222398     0.14300
C2457       C  0.41204694  0.62655586  0.61396089    -0.01200
C2458       C  0.42915436  0.61524559  0.62201257    -0.09300
C2459       C  0.44155009  0.60254147  0.60921707    -0.18100
C2460       C  0.43668487  0.59964161  0.58786977     0.04300
C2461       C  0.41859451  0.60978115  0.57999804     0.18500
C2462       C  0.40665424  0.62293275  0.59286463    -0.19500
C2463       C  0.41206145  0.60630024  0.55940439    -0.20800
C2464       C  0.42289375  0.59262326  0.54652931    -0.19300
C2465       C  0.44084873  0.58250307  0.55373836     0.19900
C2466       C  0.44844598  0.58628720  0.57427703     0.02000
C2467       C  0.46736071  0.57642375  0.58022303    -0.14100
C2468       C  0.47763643  0.56257887  0.56665126    -0.11800
C2469       C  0.46922230  0.55800002  0.54696730     0.01500
C2470       C  0.45105145  0.56833207  0.54053210    -0.23900
H2471       H  0.43301261  0.61632191  0.63847194     0.09500
H2472       H  0.45442426  0.59461237  0.61663157     0.13100
H2473       H  0.39248905  0.62944249  0.58639607     0.11800
H2474       H  0.39821163  0.61390273  0.55332010     0.13000
H2475       H  0.41715311  0.58991311  0.53080980     0.12100
H2476       H  0.47455173  0.57914532  0.59522610     0.09100
H2477       H  0.49180864  0.55492770  0.57182317     0.12400
H2478       H  0.44471137  0.56520927  0.52510663     0.14300
C2479       C  0.41013174  0.65584006  0.64219591    -0.01200
C2480       C  0.43161236  0.65986237  0.63994191    -0.09300
C2481       C  0.44223858  0.67245582  0.65430316    -0.18100
C2482       C  0.43163491  0.68217159  0.67109476     0.04300
C2483       C  0.40958590  0.68040688  0.67169119     0.18500
C2484       C  0.39915876  0.66755168  0.65733411    -0.19500
C2485       C  0.39808347  0.69095996  0.68702996    -0.20800
C2486       C  0.40811790  0.70262686  0.70235207    -0.19300
C2487       C  0.42992211  0.70360331  0.70301609     0.19900
C2488       C  0.44203184  0.69344977  0.68736254     0.02000
C2489       C  0.46399711  0.69432181  0.68918967    -0.14100
C2490       C  0.47348450  0.70467929  0.70592502    -0.11800
C2491       C  0.46149977  0.71465875  0.72135735     0.01500
C2492       C  0.43967606  0.71424704  0.71958419    -0.23900
H2493       H  0.44053713  0.65322398  0.62724499     0.09500
H2494       H  0.45876271  0.67436070  0.65182749     0.13100
H2495       H  0.38240469  0.66566239  0.65867316     0.11800
H2496       H  0.38120820  0.68993757  0.68736450     0.13000
H2497       H  0.39876772  0.71042819  0.71413990     0.12100
H2498       H  0.47426245  0.68666502  0.67823628     0.09100
H2499       H  0.49035839  0.70470119  0.70683705     0.12400
H2500       H  0.43017601  0.72184513  0.73139267     0.14300
C2501       C  0.61717442  0.38884522  0.64874808    -0.01200
C2502       C  0.60245464  0.39665303  0.66319625    -0.09300
C2503       C  0.58905735  0.38340785  0.67419984    -0.18100
C2504       C  0.59013494  0.36155112  0.67161818     0.04300
C2505       C  0.60556657  0.35352946  0.65780625     0.18500
C2506       C  0.61816814  0.36703699  0.64602319    -0.19500
C2507       C  0.60833583  0.33196622  0.65569880    -0.20800
C2508       C  0.59608893  0.31815798  0.66701104    -0.19300
C2509       C  0.58008484  0.32552169  0.67995607     0.19900
C2510       C  0.57651914  0.34731046  0.68215985     0.02000
C2511       C  0.55908364  0.35375575  0.69420519    -0.14100
C2512       C  0.54573944  0.33910049  0.70347513    -0.11800
C2513       C  0.54975170  0.31766837  0.70164480     0.01500
C2514       C  0.56717601  0.31109016  0.69012607    -0.23900
H2515       H  0.60110087  0.41332578  0.66568815     0.09500
H2516       H  0.57823860  0.39068847  0.68487970     0.13100
H2517       H  0.62836816  0.36018763  0.63447193     0.11800
H2518       H  0.62023874  0.32571557  0.64538730     0.13000
H2519       H  0.59878623  0.30155224  0.66516256     0.12100
H2520       H  0.55495402  0.36997128  0.69606623     0.09100
H2521       H  0.53217509  0.34454052  0.71200826     0.12400
H2522       H  0.57009618  0.29452615  0.68811953     0.14300
C2523       C  0.61344885  0.41702051  0.62321161    -0.01200
C2524       C  0.60034444  0.40556694  0.60975652    -0.09300
C2525       C  0.58593825  0.41528185  0.59676807    -0.18100
C2526       C  0.58391714  0.43719173  0.59641966     0.04300
C2527       C  0.59626189  0.44894641  0.61061201     0.18500
C2528       C  0.61020003  0.43880475  0.62439530    -0.19500
C2529       C  0.59500204  0.47079604  0.61053411    -0.20800
C2530       C  0.58230470  0.48118500  0.59617557    -0.19300
C2531       C  0.57013650  0.47000038  0.58183265     0.19900
C2532       C  0.57041397  0.44780795  0.58215664     0.02000
C2533       C  0.55734790  0.43713710  0.56797620    -0.14100
C2534       C  0.54518251  0.44793067  0.55359418    -0.11800
C2535       C  0.54540657  0.46979982  0.55264903     0.01500
C2536       C  0.55778384  0.48079835  0.56705682    -0.23900
H2537       H  0.60184845  0.38875194  0.60874622     0.09500
H2538       H  0.57713882  0.40509920  0.58670639     0.13100
H2539       H  0.61858525  0.44814730  0.63564965     0.11800
H2540       H  0.60432812  0.47994901  0.62128937     0.13000
H2541       H  0.58208929  0.49809547  0.59622248     0.12100
H2542       H  0.55608690  0.42039715  0.56751204     0.09100
H2543       H  0.53559831  0.43889174  0.54298483     0.12400
H2544       H  0.55789203  0.49771053  0.56673441     0.14300
C2545       C  0.64431429  0.41807460  0.65012501    -0.01200
C2546       C  0.65559018  0.43492984  0.64170516    -0.09300
C2547       C  0.67032744  0.44580437  0.65353521    -0.18100
C2548       C  0.67569949  0.43925609  0.67392023     0.04300
C2549       C  0.66579064  0.42118444  0.68189670     0.18500
C2550       C  0.64992992  0.41129638  0.67042474    -0.19500
C2551       C  0.67239011  0.41252616  0.70091047    -0.20800
C2552       C  0.68879341  0.42138676  0.71205737    -0.19300
C2553       C  0.69829294  0.43972855  0.70501506     0.19900
C2554       C  0.69135641  0.44932106  0.68620304     0.02000
C2555       C  0.70023732  0.46867892  0.68060131    -0.14100
C2556       C  0.71595826  0.47768335  0.69270847    -0.11800
C2557       C  0.72362572  0.46759832  0.71057453     0.01500
C2558       C  0.71463233  0.44862226  0.71670031    -0.23900
H2559       H  0.65324160  0.43952991  0.62557965     0.09500
H2560       H  0.67818427  0.45852903  0.64584490     0.13100
H2561       H  0.64312097  0.39731629  0.67695627     0.11800
H2562       H  0.66517716  0.39848325  0.70694009     0.13000
H2563       H  0.69387361  0.41401441  0.72643673     0.12100
H2564       H  0.69502500  0.47741915  0.66716751     0.09100
H2565       H  0.72242866  0.49249383  0.68780024     0.12400
H2566       H  0.72013599  0.44092730  0.73076045     0.14300
C2567       C  0.61899601  0.65521470  0.38441883    -0.01200
C2568       C  0.60539768  0.64648184  0.36944366    -0.09300
C2569       C  0.59170422  0.65884389  0.35782422    -0.18100
C2570       C  0.59121994  0.68073143  0.36035793     0.04300
C2571       C  0.60635701  0.68985727  0.37371674     0.18500
C2572       C  0.62030155  0.67722756  0.38507186    -0.19500
C2573       C  0.60725468  0.71158537  0.37602560    -0.20800
C2574       C  0.59300371  0.72442990  0.36583134    -0.19300
C2575       C  0.57741914  0.71588223  0.35314154     0.19900
C2576       C  0.57632969  0.69388608  0.35013312     0.02000
C2577       C  0.56018743  0.68602894  0.33725752    -0.14100
C2578       C  0.54603391  0.69945992  0.32754272    -0.11800
C2579       C  0.54731869  0.72100826  0.33050698     0.01500
C2580       C  0.56296589  0.72920855  0.34330848    -0.23900
H2581       H  0.60463415  0.62970449  0.36749489     0.09500
H2582       H  0.58149179  0.65072474  0.34720781     0.13100
H2583       H  0.63189861  0.68494605  0.39452452     0.11800
H2584       H  0.61889087  0.71870012  0.38604283     0.13000
H2585       H  0.59403263  0.74116189  0.36808934     0.12100
H2586       H  0.55808040  0.66960843  0.33434466     0.09100
H2587       H  0.53414644  0.69299827  0.31737967     0.12400
H2588       H  0.56412366  0.74598389  0.34524761     0.14300
C2589       C  0.61757992  0.62752333  0.41369803    -0.01200
C2590       C  0.62642449  0.61395153  0.42866893    -0.09300
C2591       C  0.61402437  0.60078034  0.44102433    -0.18100
C2592       C  0.59207568  0.60038507  0.43876493     0.04300
C2593       C  0.58303899  0.61464681  0.42438657     0.18500
C2594       C  0.59556074  0.62862734  0.41307895    -0.19500
C2595       C  0.56149220  0.61450865  0.42076576    -0.20800
C2596       C  0.54878133  0.59993736  0.43049361    -0.19300
C2597       C  0.55712038  0.58567647  0.44478422     0.19900
C2598       C  0.57875154  0.58611365  0.44976457     0.02000
C2599       C  0.58595167  0.57214957  0.46538631    -0.14100
C2600       C  0.57234157  0.55791331  0.47501797    -0.11800
C2601       C  0.55135263  0.55681063  0.46900859     0.01500
C2602       C  0.54387518  0.57087055  0.45401216    -0.23900
H2603       H  0.64322280  0.61300904  0.43026983     0.09500
H2604       H  0.62210318  0.59047700  0.45162044     0.13100
H2605       H  0.58766119  0.63995416  0.40345483     0.11800
H2606       H  0.55449001  0.62529938  0.40975148     0.13000
H2607       H  0.53227146  0.59984058  0.42681556     0.12100
H2608       H  0.60198427  0.57195708  0.47049736     0.09100
H2609       H  0.57839044  0.54727141  0.48670053     0.12400
H2610       H  0.52754425  0.57032699  0.44957569     0.14300
C2611       C  0.14448005  0.41681328  0.84890825    -0.01200
C2612       C  0.15887235  0.40466563  0.83747432    -0.09300
C2613       C  0.17297203  0.41361574  0.82358946    -0.18100
C2614       C  0.17345412  0.43537603  0.82040164     0.04300
C2615       C  0.15822137  0.44771293  0.83088302     0.18500
C2616       C  0.14366119  0.43838185  0.84455134    -0.19500
C2617       C  0.15798328  0.46939272  0.82807395    -0.20800
C2618       C  0.17304225  0.47913553  0.81578808    -0.19300
C2619       C  0.18864700  0.46745345  0.80581238     0.19900
C2620       C  0.18880140  0.44534816  0.80759228     0.02000
C2621       C  0.20464022  0.43423572  0.79687554    -0.14100
C2622       C  0.22006559  0.44464366  0.78557256    -0.11800
C2623       C  0.22039074  0.46647638  0.78448751     0.01500
C2624       C  0.20435895  0.47777139  0.79439832    -0.23900
H2625       H  0.15974256  0.38796836  0.83994070     0.09500
H2626       H  0.18363291  0.40303020  0.81600787     0.13100
H2627       H  0.13210531  0.44818694  0.85200146     0.11800
H2628       H  0.14636180  0.47895643  0.83584589     0.13000
H2629       H  0.17266583  0.49598138  0.81434412     0.12100
H2630       H  0.20576571  0.41747070  0.79710838     0.09100
H2631       H  0.23211713  0.43546179  0.77802046     0.12400
H2632       H  0.20425480  0.49466544  0.79351046     0.14300
C2633       C  0.29847280  0.45086896  0.68933724    -0.01200
C2634       C  0.32004567  0.44780748  0.69043772    -0.09300
C2635       C  0.33048521  0.43591709  0.67540810    -0.18100
C2636       C  0.31953767  0.42644004  0.65872578     0.04300
C2637       C  0.29748142  0.42915543  0.65797687     0.18500
C2638       C  0.28719375  0.44161008  0.67304241    -0.19500
C2639       C  0.28588130  0.41933401  0.64225099    -0.20800
C2640       C  0.29563253  0.40660136  0.62749850    -0.19300
C2641       C  0.31731596  0.40369792  0.62777354     0.19900
C2642       C  0.32962732  0.41404833  0.64302698     0.02000
C2643       C  0.35151678  0.41176713  0.64169944    -0.14100
C2644       C  0.36063231  0.39864137  0.62681071    -0.11800
C2645       C  0.34844877  0.38657941  0.61301696     0.01500
C2646       C  0.32670847  0.39038394  0.61292412    -0.23900
H2647       H  0.32897222  0.45497335  0.70291927     0.09500
H2648       H  0.34708740  0.43420383  0.67745164     0.13100
H2649       H  0.27046406  0.44400124  0.67218395     0.11800
H2650       H  0.26909245  0.42125339  0.64154136     0.13000
H2651       H  0.28611167  0.39892161  0.61579526     0.12100
H2652       H  0.36206503  0.42000290  0.65189386     0.09100
H2653       H  0.37747617  0.39720376  0.62659424     0.12400
H2654       H  0.31682391  0.38317765  0.60129545     0.14300
C2655       C  0.33384159  0.54680384  0.70387864    -0.01200
C2656       C  0.34960500  0.55846199  0.71349409    -0.09300
C2657       C  0.36128903  0.57287658  0.70201508    -0.18100
C2658       C  0.35765338  0.57594785  0.68037128     0.04300
C2659       C  0.34226574  0.56335684  0.67054979     0.18500
C2660       C  0.33051540  0.54912164  0.68231692    -0.19500
C2661       C  0.33841483  0.56527688  0.64908634    -0.20800
C2662       C  0.34920567  0.57981433  0.63717624    -0.19300
C2663       C  0.36389735  0.59300179  0.64648906     0.19900
C2664       C  0.36843180  0.59121688  0.66816710     0.02000
C2665       C  0.38339857  0.60493748  0.67667733    -0.14100
C2666       C  0.39285257  0.62024430  0.66440993    -0.11800
C2667       C  0.38762581  0.62283619  0.64312423     0.01500
C2668       C  0.37382146  0.60820864  0.63423485    -0.23900
H2669       H  0.35247855  0.55693328  0.73012166     0.09500
H2670       H  0.37287596  0.58152209  0.71059499     0.13100
H2671       H  0.31852435  0.53995389  0.67466389     0.11800
H2672       H  0.32682828  0.55558575  0.64147961     0.13000
H2673       H  0.34573108  0.58102834  0.62062770     0.12100
H2674       H  0.38813789  0.60431090  0.69283179     0.09100
H2675       H  0.40463212  0.62972819  0.67184881     0.12400
H2676       H  0.37028485  0.60916283  0.61767708     0.14300
C2677       C  0.35748216  0.39532832  0.12152641    -0.01200
C2678       C  0.34231379  0.38207557  0.13029793    -0.09300
C2679       C  0.32756260  0.37188666  0.11796893    -0.18100
C2680       C  0.32689589  0.37480650  0.09609045     0.04300
C2681       C  0.34122258  0.38911872  0.08717303     0.18500
C2682       C  0.35609430  0.39928160  0.09979438    -0.19500
C2683       C  0.34062412  0.39323142  0.06564871    -0.20800
C2684       C  0.32635413  0.38311002  0.05273028    -0.19300
C2685       C  0.31242542  0.36844160  0.06094383     0.19900
C2686       C  0.31249755  0.36409819  0.08277241     0.02000
C2687       C  0.29847254  0.34885158  0.09025830    -0.14100
C2688       C  0.28533113  0.33808001  0.07665633    -0.11800
C2689       C  0.28540852  0.34216223  0.05512712     0.01500
C2690       C  0.29876254  0.35769302  0.04740401    -0.23900
H2691       H  0.34214288  0.37930267  0.14701079     0.09500
H2692       H  0.31680785  0.36191078  0.12614258     0.13100
H2693       H  0.36621325  0.41054585  0.09242170     0.11800
H2694       H  0.35138023  0.40426390  0.05871006     0.13000
H2695       H  0.32643681  0.38654833  0.03613526     0.12100
H2696       H  0.29759580  0.34446406  0.10648963     0.09100
H2697       H  0.27518096  0.32620386  0.08307860     0.12400
H2698       H  0.29912806  0.36083937  0.03074659     0.14300
C2699       C  0.38893532  0.42009275  0.12381116    -0.01200
C2700       C  0.39032175  0.44202944  0.12553042    -0.09300
C2701       C  0.40318284  0.45365953  0.11213304    -0.18100
C2702       C  0.41584958  0.44377256  0.09696076     0.04300
C2703       C  0.41592218  0.42159405  0.09660573     0.18500
C2704       C  0.40270722  0.41018555  0.10979086    -0.19500
C2705       C  0.42895821  0.41077010  0.08281921    -0.20800
C2706       C  0.44171436  0.42147795  0.06903024    -0.19300
C2707       C  0.44147565  0.44329408  0.06837520     0.19900
C2708       C  0.42855067  0.45489464  0.08221098     0.02000
C2709       C  0.42869734  0.47696127  0.08026203    -0.14100
C2710       C  0.44125244  0.48694787  0.06523420    -0.11800
C2711       C  0.45409714  0.47529004  0.05179553     0.01500
C2712       C  0.45403883  0.45345293  0.05366872    -0.23900
H2713       H  0.38142769  0.45055643  0.13705884     0.09500
H2714       H  0.40304054  0.47037756  0.11409216     0.13100
H2715       H  0.40253351  0.39330088  0.10862130     0.11800
H2716       H  0.42923213  0.39385516  0.08262734     0.13000
H2717       H  0.45160635  0.41258357  0.05852629     0.12100
H2718       H  0.41904308  0.48683242  0.08993576     0.09100
H2719       H  0.44087152  0.50380500  0.06412830     0.12400
H2720       H  0.46374526  0.44407617  0.04340785     0.14300
C2721       C  0.62272364  0.62679429  0.84627229    -0.01200
C2722       C  0.60981598  0.61992612  0.82977746    -0.09300
C2723       C  0.59781965  0.63392189  0.81801983    -0.18100
C2724       C  0.59848436  0.65559179  0.82204223     0.04300
C2725       C  0.61299962  0.66273940  0.83723724     0.18500
C2726       C  0.62529025  0.64852991  0.84858156    -0.19500
C2727       C  0.61468827  0.68406308  0.84165431    -0.20800
C2728       C  0.60128624  0.69834653  0.83235660    -0.19300
C2729       C  0.58610587  0.69171656  0.81812163     0.19900
C2730       C  0.58492659  0.67038217  0.81209189     0.02000
C2731       C  0.56971066  0.66481002  0.79698328    -0.14100
C2732       C  0.55555104  0.67961045  0.78919172    -0.11800
C2733       C  0.55600722  0.70022948  0.79638370     0.01500
C2734       C  0.57161999  0.70625429  0.81044228    -0.23900
H2735       H  0.60826748  0.60338749  0.82663278     0.09500
H2736       H  0.58774169  0.62725031  0.80630349     0.13100
H2737       H  0.63654219  0.65475703  0.85949177     0.11800
H2738       H  0.62592524  0.68966559  0.85301067     0.13000
H2739       H  0.60248010  0.71465183  0.83672018     0.12100
H2740       H  0.56806832  0.64907124  0.79126604     0.09100
H2741       H  0.54357757  0.67469765  0.77829781     0.12400
H2742       H  0.57213566  0.72230463  0.81584485     0.14300
C2743       C  0.61837864  0.59625644  0.87234013    -0.01200
C2744       C  0.59652563  0.59883024  0.87145975    -0.09300
C2745       C  0.58311974  0.58597614  0.88284805    -0.18100
C2746       C  0.59092417  0.57051721  0.89648969     0.04300
C2747       C  0.61289051  0.56856429  0.89840518     0.18500
C2748       C  0.62621131  0.58101686  0.88624816    -0.19500
C2749       C  0.62146685  0.55458656  0.91288593    -0.20800
C2750       C  0.60863490  0.54304081  0.92605686    -0.19300
C2751       C  0.58689783  0.54459467  0.92452616     0.19900
C2752       C  0.57773155  0.55769621  0.90910768     0.02000
C2753       C  0.55575767  0.55751319  0.90714138    -0.14100
C2754       C  0.54338600  0.54595970  0.92087425    -0.11800
C2755       C  0.55241839  0.53438582  0.93712161     0.01500
C2756       C  0.57424036  0.53341152  0.93856201    -0.23900
H2757       H  0.58934020  0.61112495  0.86247712     0.09500
H2758       H  0.56666693  0.58917136  0.88135904     0.13100
H2759       H  0.64295566  0.57913214  0.88782808     0.11800
H2760       H  0.63823445  0.55303332  0.91447694     0.13000
H2761       H  0.61576664  0.53286669  0.93756042     0.12100
H2762       H  0.54768944  0.56613008  0.89512500     0.09100
H2763       H  0.52658141  0.54670322  0.91920026     0.12400
H2764       H  0.58138979  0.52407835  0.95076363     0.14300
C2765       C  0.64794650  0.59763296  0.84510719    -0.01200
C2766       C  0.64513833  0.57610838  0.84155025    -0.09300
C2767       C  0.65881638  0.56481779  0.82889308    -0.18100
C2768       C  0.67575417  0.57461806  0.81883748     0.04300
C2769       C  0.67743483  0.59662540  0.82059602     0.18500
C2770       C  0.66350006  0.60784707  0.83334314    -0.19500
C2771       C  0.69324076  0.60725471  0.80991180    -0.20800
C2772       C  0.70760200  0.59640289  0.79769002    -0.19300
C2773       C  0.70682298  0.57461347  0.79628459     0.19900
C2774       C  0.69101989  0.56337222  0.80706896     0.02000
C2775       C  0.69167458  0.54131656  0.80629220    -0.14100
C2776       C  0.70741753  0.53092418  0.79539083    -0.11800
C2777       C  0.72261781  0.54207801  0.78447562     0.01500
C2778       C  0.72214045  0.56390909  0.78470023    -0.23900
H2779       H  0.63230544  0.56761992  0.84837472     0.09500
H2780       H  0.65555837  0.54842075  0.82711020     0.13100
H2781       H  0.66527552  0.62460375  0.83489860     0.11800
H2782       H  0.69456332  0.62407391  0.81108815     0.13000
H2783       H  0.71968779  0.60507549  0.78966531     0.12100
H2784       H  0.68071787  0.53163648  0.81457086     0.09100
H2785       H  0.70783860  0.51401788  0.79561473     0.12400
H2786       H  0.73430064  0.57251845  0.77669163     0.14300
C2787       C  0.37901025  0.64846539  0.88424007    -0.01200
C2788       C  0.39417138  0.63902250  0.87137081    -0.09300
C2789       C  0.41024742  0.65055351  0.86231695    -0.18100
C2790       C  0.41206422  0.67223191  0.86588428     0.04300
C2791       C  0.39731518  0.68178606  0.87942206     0.18500
C2792       C  0.38150490  0.66990170  0.88881063    -0.19500
C2793       C  0.39825320  0.70326513  0.88340583    -0.20800
C2794       C  0.41314534  0.71562412  0.87366380    -0.19300
C2795       C  0.42770879  0.70675637  0.85998526     0.19900
C2796       C  0.42772737  0.68484051  0.85626339     0.02000
C2797       C  0.44311360  0.67662794  0.84265445    -0.14100
C2798       C  0.45695234  0.68977114  0.83221291    -0.11800
C2799       C  0.45611815  0.71132523  0.83525043     0.01500
C2800       C  0.44185244  0.71976399  0.84945668    -0.23900
H2801       H  0.39338460  0.62245963  0.86807765     0.09500
H2802       H  0.42084846  0.64202495  0.85240034     0.13100
H2803       H  0.37142661  0.67765209  0.89992429     0.11800
H2804       H  0.38707324  0.71065593  0.89377515     0.13000
H2805       H  0.41311615  0.73227504  0.87666591     0.12100
H2806       H  0.44456191  0.66020287  0.83935371     0.09100
H2807       H  0.46792998  0.68313311  0.82114551     0.12400
H2808       H  0.44118165  0.73654737  0.85160223     0.14300
C2809       C  0.34832073  0.62295124  0.87788955    -0.01200
C2810       C  0.33304436  0.60877430  0.88482703    -0.09300
C2811       C  0.32073379  0.59749087  0.87076344    -0.18100
C2812       C  0.32308008  0.59998481  0.84894449     0.04300
C2813       C  0.33756054  0.61519545  0.84186001     0.18500
C2814       C  0.34951066  0.62676866  0.85619949    -0.19500
C2815       C  0.34050269  0.61842239  0.82041213    -0.20800
C2816       C  0.33039680  0.60594147  0.80582432    -0.19300
C2817       C  0.31676245  0.59020372  0.81230042     0.19900
C2818       C  0.31218143  0.58750331  0.83388739     0.02000
C2819       C  0.29751210  0.57189239  0.83937073    -0.14100
C2820       C  0.28905071  0.55855659  0.82417975    -0.11800
C2821       C  0.29503241  0.56034076  0.80322473     0.01500
C2822       C  0.30836976  0.57656620  0.79732442    -0.23900
H2823       H  0.33097858  0.60607226  0.90142261     0.09500
H2824       H  0.30985542  0.58658135  0.87746014     0.13100
H2825       H  0.35974753  0.63870584  0.85015970     0.11800
H2826       H  0.35130866  0.63017279  0.81487321     0.13000
H2827       H  0.33365353  0.60829703  0.78935791     0.12100
H2828       H  0.29271711  0.56924871  0.85530356     0.09100
H2829       H  0.27872934  0.54608770  0.82899115     0.12400
H2830       H  0.31285545  0.57805965  0.78102790     0.14300
C2831       C  0.37433906  0.61925984  0.90848239    -0.01200
C2832       C  0.38598159  0.62706929  0.92549256    -0.09300
C2833       C  0.39893073  0.61417917  0.93749895    -0.18100
C2834       C  0.40180815  0.59293386  0.93233332     0.04300
C2835       C  0.39117134  0.58519571  0.91445005     0.18500
C2836       C  0.37750647  0.59810784  0.90303005    -0.19500
C2837       C  0.39478489  0.56474828  0.90756067    -0.20800
C2838       C  0.40905758  0.55195731  0.91779816    -0.19300
C2839       C  0.41958038  0.55900143  0.93564330     0.19900
C2840       C  0.41561165  0.57934628  0.94361177     0.02000
C2841       C  0.42568356  0.58513427  0.96246783    -0.14100
C2842       C  0.43980511  0.57163523  0.97239942    -0.11800
C2843       C  0.44463465  0.55211474  0.96373422     0.01500
C2844       C  0.43421914  0.54584669  0.94545534    -0.23900
H2845       H  0.38513749  0.64348836  0.92945446     0.09500
H2846       H  0.40719942  0.62150179  0.95021902     0.13100
H2847       H  0.37036838  0.59171849  0.88911013     0.11800
H2848       H  0.38687305  0.55874483  0.89383706     0.13000
H2849       H  0.41184537  0.53639771  0.91173159     0.12100
H2850       H  0.42282860  0.59994878  0.96996632     0.09100
H2851       H  0.44746378  0.57676684  0.98660177     0.12400
H2852       H  0.43751807  0.53060453  0.93882807     0.14300
C2853       C  0.28785925  0.72716611  0.95891562    -0.01200
C2854       C  0.29684347  0.71101395  0.97065836    -0.09300
C2855       C  0.30673557  0.69421416  0.96087828    -0.18100
C2856       C  0.30815712  0.69304640  0.93884686     0.04300
C2857       C  0.29874295  0.70928175  0.92695081     0.18500
C2858       C  0.28852049  0.72594226  0.93700656    -0.19500
C2859       C  0.30015488  0.70913304  0.90510091    -0.20800
C2860       C  0.31158393  0.69374396  0.89485524    -0.19300
C2861       C  0.32155316  0.67792445  0.90619162     0.19900
C2862       C  0.31935515  0.67687889  0.92824032     0.02000
C2863       C  0.32871846  0.65983548  0.93868793    -0.14100
C2864       C  0.34142844  0.64564774  0.92799554    -0.11800
C2865       C  0.34575795  0.64817618  0.90656768     0.01500
C2866       C  0.33431151  0.66354262  0.89564472    -0.23900
H2867       H  0.29647604  0.71143879  0.98759315     0.09500
H2868       H  0.31364363  0.68270737  0.97103308     0.13100
H2869       H  0.28162037  0.73830537  0.92771560     0.11800
H2870       H  0.29290604  0.72135988  0.89590639     0.13000
H2871       H  0.31296968  0.69445342  0.87797350     0.12100
H2872       H  0.32654160  0.65704651  0.95516330     0.09100
H2873       H  0.34784947  0.63279840  0.93682262     0.12400
H2874       H  0.33642534  0.66506714  0.87888644     0.14300
C2875       C  0.37848572  0.35626476  0.88596330    -0.01200
C2876       C  0.36980335  0.36743068  0.90283324    -0.09300
C2877       C  0.35613000  0.35819245  0.91688156    -0.18100
C2878       C  0.34976046  0.33728901  0.91440536     0.04300
C2879       C  0.35687999  0.32628602  0.89649556     0.18500
C2880       C  0.37110324  0.33574629  0.88248531    -0.19500
C2881       C  0.34938432  0.30608621  0.89255644    -0.20800
C2882       C  0.33482562  0.29678933  0.90590665    -0.19300
C2883       C  0.32783292  0.30717115  0.92392173     0.19900
C2884       C  0.33582426  0.32733168  0.92866217     0.02000
C2885       C  0.32961384  0.33676771  0.94757590    -0.14100
C2886       C  0.31484047  0.32748427  0.96037087    -0.11800
C2887       C  0.30562134  0.30834447  0.95508743     0.01500
C2888       C  0.31270240  0.29782666  0.93710639    -0.23900
H2889       H  0.37395211  0.38362859  0.90533156     0.09500
H2890       H  0.35035513  0.36811872  0.92920794     0.13100
H2891       H  0.37566969  0.32725749  0.86860204     0.11800
H2892       H  0.35455498  0.29754067  0.87886149     0.13000
H2893       H  0.32904782  0.28135706  0.90213957     0.12100
H2894       H  0.33596680  0.35133698  0.95305155     0.09100
H2895       H  0.31036777  0.33566394  0.97453187     0.12400
H2896       H  0.30601295  0.28284611  0.93302557     0.14300
C2897       C  0.37926632  0.38476857  0.86066670    -0.01200
C2898       C  0.36372040  0.37752720  0.84691795    -0.09300
C2899       C  0.35298799  0.39108019  0.83372581    -0.18100
C2900       C  0.35728680  0.41268360  0.83371707     0.04300
C2901       C  0.37113528  0.42043717  0.84918694     0.18500
C2902       C  0.38126163  0.40661047  0.86301841    -0.19500
C2903       C  0.37523661  0.44189254  0.85034951    -0.20800
C2904       C  0.36614609  0.45575009  0.83620206    -0.19300
C2905       C  0.35273935  0.44852444  0.82048409     0.19900
C2906       C  0.34823518  0.42682580  0.81900090     0.02000
C2907       C  0.33506337  0.42012699  0.80264432    -0.14100
C2908       C  0.32595212  0.43437294  0.78902042    -0.11800
C2909       C  0.32971151  0.45583275  0.79087692     0.01500
C2910       C  0.34355709  0.46282432  0.80638214    -0.23900
H2911       H  0.36079870  0.36094900  0.84542549     0.09500
H2912       H  0.34177606  0.38401167  0.82338224     0.13100
H2913       H  0.39108206  0.41309801  0.87510242     0.11800
H2914       H  0.38577184  0.44797824  0.86212079     0.13000
H2915       H  0.36971376  0.47222370  0.83750326     0.12100
H2916       H  0.33140138  0.40395978  0.79991320     0.09100
H2917       H  0.31563890  0.42846892  0.77696467     0.12400
H2918       H  0.34661702  0.47938652  0.80792988     0.14300
C2919       C  0.47547095  0.44482511  0.94545435    -0.01200
C2920       C  0.46849956  0.42609637  0.95437323    -0.09300
C2921       C  0.45786839  0.41127004  0.94238610    -0.18100
C2922       C  0.45387699  0.41465331  0.92089312     0.04300
C2923       C  0.46205467  0.43307954  0.91164535     0.18500
C2924       C  0.47257607  0.44794302  0.92392723    -0.19500
C2925       C  0.45920602  0.43684826  0.89027299    -0.20800
C2926       C  0.44776099  0.42308296  0.87799651    -0.19300
C2927       C  0.43838174  0.40550814  0.88690352     0.19900
C2928       C  0.44146160  0.40088579  0.90840299     0.02000
C2929       C  0.43131401  0.38311787  0.91655425    -0.14100
C2930       C  0.41692796  0.37195776  0.90452576    -0.11800
C2931       C  0.41201053  0.37805097  0.88390092     0.01500
C2932       C  0.42489021  0.39327452  0.87467378    -0.23900
H2933       H  0.47069248  0.42310801  0.97090156     0.09500
H2934       H  0.45270364  0.39747395  0.95047198     0.13100
H2935       H  0.47811769  0.46221309  0.91674458     0.11800
H2936       H  0.46557398  0.45074434  0.88305998     0.13000
H2937       H  0.44547359  0.42670835  0.86159757     0.12100
H2938       H  0.43353578  0.37790224  0.93241571     0.09100
H2939       H  0.40939159  0.35872074  0.91175494     0.12400
H2940       H  0.42276189  0.39714941  0.85832065     0.14300
C2941       C  0.45779093  0.29593117  0.77572347    -0.01200
C2942       C  0.45094503  0.31620108  0.77127586    -0.09300
C2943       C  0.44052400  0.32807470  0.78619161    -0.18100
C2944       C  0.43670173  0.32021195  0.80646954     0.04300
C2945       C  0.44389815  0.29975273  0.81120147     0.18500
C2946       C  0.45406702  0.28766190  0.79573541    -0.19500
C2947       C  0.44109408  0.29169787  0.83139147    -0.20800
C2948       C  0.43144871  0.30359679  0.84696807    -0.19300
C2949       C  0.42384885  0.32366299  0.84263358     0.19900
C2950       C  0.42615639  0.33205368  0.82220946     0.02000
C2951       C  0.41794341  0.35207270  0.81837991    -0.14100
C2952       C  0.40757040  0.36312244  0.83388697    -0.11800
C2953       C  0.40440761  0.35481601  0.85408124     0.01500
C2954       C  0.41387075  0.33539719  0.85850978    -0.23900
H2955       H  0.45351716  0.32298932  0.75597763     0.09500
H2956       H  0.43592988  0.34347085  0.78129374     0.13100
H2957       H  0.45948245  0.27205205  0.79941000     0.11800
H2958       H  0.44659160  0.27616325  0.83522822     0.13000
H2959       H  0.42970043  0.29695364  0.86244891     0.12100
H2960       H  0.41916373  0.35979920  0.80349760     0.09100
H2961       H  0.40243031  0.37867543  0.82981826     0.12400
H2962       H  0.41310917  0.32921335  0.87426021     0.14300
C2963       C  0.53098332  0.56051636  0.04566640    -0.01200
C2964       C  0.52596401  0.58180223  0.04484381    -0.09300
C2965       C  0.53498820  0.59599153  0.05900212    -0.18100
C2966       C  0.54892660  0.58911222  0.07479774     0.04300
C2967       C  0.55316965  0.56731222  0.07589087     0.18500
C2968       C  0.54457639  0.55345957  0.06122149    -0.19500
C2969       C  0.56603115  0.55933645  0.09161965    -0.20800
C2970       C  0.57520434  0.57253516  0.10611560    -0.19300
C2971       C  0.57221742  0.59414264  0.10496203     0.19900
C2972       C  0.55898589  0.60286022  0.08945123     0.02000
C2973       C  0.55670451  0.62485399  0.08931778    -0.14100
C2974       C  0.56813402  0.63755264  0.10315641    -0.11800
C2975       C  0.58257846  0.62895991  0.11744815     0.01500
C2976       C  0.58299816  0.60696911  0.11904952    -0.23900
H2977       H  0.51543534  0.58754047  0.03289977     0.09500
H2978       H  0.53077685  0.61219978  0.05728607     0.13100
H2979       H  0.54828578  0.53694999  0.06204518     0.11800
H2980       H  0.56909794  0.54272834  0.09268284     0.13000
H2981       H  0.58521955  0.56579623  0.11800161     0.12100
H2982       H  0.54662024  0.63268306  0.07832609     0.09100
H2983       H  0.56644453  0.65433541  0.10204486     0.12400
H2984       H  0.59202097  0.59928544  0.13103933     0.14300
C2985       C  0.58238942  0.65788143  0.14421430    -0.01200
C2986       C  0.56574977  0.64915281  0.15568639    -0.09300
C2987       C  0.55415828  0.66101495  0.16997866    -0.18100
C2988       C  0.55898881  0.68219086  0.17380123     0.04300
C2989       C  0.57502712  0.69133007  0.16162105     0.18500
C2990       C  0.58541434  0.67963909  0.14620510    -0.19500
C2991       C  0.58128230  0.71192976  0.16541752    -0.20800
C2992       C  0.57245661  0.72341638  0.18161618    -0.19300
C2993       C  0.55644871  0.71496597  0.19379032     0.19900
C2994       C  0.54894461  0.69449311  0.18959100     0.02000
C2995       C  0.53178360  0.68728077  0.20142981    -0.14100
C2996       C  0.52292282  0.69963791  0.21714511    -0.11800
C2997       C  0.53110082  0.71934711  0.22191312     0.01500
C2998       C  0.54784897  0.72693066  0.21011671    -0.23900
H2999       H  0.56232865  0.63266312  0.15434163     0.09500
H3000       H  0.54223012  0.65286959  0.17857655     0.13100
H3001       H  0.59635796  0.68785060  0.13648699     0.11800
H3002       H  0.59364811  0.71896634  0.15627905     0.13000
H3003       H  0.57812059  0.73907205  0.18456372     0.12100
H3004       H  0.52471668  0.67226777  0.19873687     0.09100
H3005       H  0.50983650  0.69353310  0.22592673     0.12400
H3006       H  0.55398188  0.74234579  0.21342921     0.14300
C3007       C  0.56051676  0.45313659  0.02406704    -0.01200
C3008       C  0.58201095  0.45735261  0.02406739    -0.09300
C3009       C  0.59611861  0.44416078  0.03452698    -0.18100
C3010       C  0.58908003  0.42643099  0.04568944     0.04300
C3011       C  0.56730966  0.42214222  0.04531024     0.18500
C3012       C  0.55346872  0.43519523  0.03440551    -0.19500
C3013       C  0.55926319  0.40512955  0.05631781    -0.20800
C3014       C  0.57222807  0.39264751  0.06836175    -0.19300
C3015       C  0.59364409  0.39668026  0.06953718     0.19900
C3016       C  0.60257208  0.41316530  0.05777677     0.02000
C3017       C  0.62451159  0.41548167  0.05872393    -0.14100
C3018       C  0.63673783  0.40280029  0.07184962    -0.11800
C3019       C  0.62760621  0.38796945  0.08532822     0.01500
C3020       C  0.60602084  0.38429736  0.08270242    -0.23900
H3021       H  0.58794342  0.47104194  0.01615003     0.09500
H3022       H  0.61235617  0.44851107  0.03411277     0.13100
H3023       H  0.53691940  0.43171629  0.03466638     0.11800
H3024       H  0.54270395  0.40173137  0.05601929     0.13000
H3025       H  0.56536331  0.37990686  0.07710563     0.12100
H3026       H  0.63262387  0.42695283  0.04947837     0.09100
H3027       H  0.65346884  0.40513389  0.07212875     0.12400
H3028       H  0.59844397  0.37149905  0.09059465     0.14300
C3029       C  0.65609125  0.36152344  0.08662048    -0.01200
C3030       C  0.64700934  0.34918975  0.07080222    -0.09300
C3031       C  0.65867677  0.33499147  0.05916119    -0.18100
C3032       C  0.68018815  0.33213560  0.06291507     0.04300
C3033       C  0.68984636  0.34528499  0.07793643     0.18500
C3034       C  0.67799993  0.36028583  0.08900223    -0.19500
C3035       C  0.71114576  0.34283659  0.08236438    -0.20800
C3036       C  0.72279728  0.32704079  0.07284617    -0.19300
C3037       C  0.71357931  0.31349446  0.05833199     0.19900
C3038       C  0.69225512  0.31626147  0.05277221     0.02000
C3039       C  0.68375683  0.30268340  0.03762318    -0.14100
C3040       C  0.69552566  0.28649287  0.02912756    -0.11800
C3041       C  0.71629726  0.28308008  0.03519723     0.01500
C3042       C  0.72539151  0.29697711  0.04957476    -0.23900
H3043       H  0.63035058  0.34981456  0.06805305     0.09500
H3044       H  0.65009981  0.32592792  0.04789479     0.13100
H3045       H  0.68603272  0.37031106  0.09991256     0.11800
H3046       H  0.71872026  0.35281510  0.09375019     0.13000
H3047       H  0.73907749  0.32524934  0.07707020     0.12100
H3048       H  0.66796449  0.30399105  0.03203291     0.09100
H3049       H  0.68806420  0.27639738  0.01778377     0.12400
H3050       H  0.74150028  0.29474214  0.05424302     0.14300
C3051       C  0.02855478  0.56455528  0.44867997    -0.01200
C3052       C  0.04203336  0.57910042  0.45786527    -0.09300
C3053       C  0.05337889  0.59301298  0.44557487    -0.18100
C3054       C  0.05148661  0.59292525  0.42353778     0.04300
C3055       C  0.03669443  0.57915495  0.41440128     0.18500
C3056       C  0.02564364  0.56494010  0.42694413    -0.19500
C3057       C  0.03331683  0.57941969  0.39276831    -0.20800
C3058       C  0.04469121  0.59274136  0.37994310    -0.19300
C3059       C  0.06015102  0.60567763  0.38835790     0.19900
C3060       C  0.06386834  0.60583022  0.41024006     0.02000
C3061       C  0.08050198  0.61808777  0.41776447    -0.14100
C3062       C  0.09283797  0.62978346  0.40420733    -0.11800
C3063       C  0.08876169  0.63051113  0.38251454     0.01500
C3064       C  0.07234583  0.61797485  0.37490131    -0.23900
H3065       H  0.04439379  0.57927411  0.47464597     0.09500
H3066       H  0.06349504  0.60363669  0.45379575     0.13100
H3067       H  0.01492114  0.55400432  0.41975261     0.11800
H3068       H  0.02187047  0.56917513  0.38570043     0.13000
H3069       H  0.04175393  0.59251519  0.36324692     0.12100
H3070       H  0.08502858  0.61823873  0.43399721     0.09100
H3071       H  0.10612445  0.63751285  0.41106729     0.12400
H3072       H  0.06940571  0.61742001  0.35820938     0.14300
C3073       C  0.09194184  0.65772953  0.35243885    -0.01200
C3074       C  0.10384130  0.66824299  0.33722004    -0.09300
C3075       C  0.09457182  0.68104140  0.32229742    -0.18100
C3076       C  0.07277834  0.68409223  0.32193193     0.04300
C3077       C  0.06078217  0.67476239  0.33811154     0.18500
C3078       C  0.07041647  0.66216495  0.35339160    -0.19500
C3079       C  0.03913522  0.67770376  0.33868323    -0.20800
C3080       C  0.02908131  0.68922999  0.32321989    -0.19300
C3081       C  0.04040790  0.69817867  0.30679889     0.19900
C3082       C  0.06246252  0.69591646  0.30601750     0.02000
C3083       C  0.07317593  0.70530648  0.28913481    -0.14100
C3084       C  0.06245273  0.71635320  0.27369941    -0.11800
C3085       C  0.04069133  0.71836946  0.27435632     0.01500
C3086       C  0.02977440  0.70925311  0.29104101    -0.23900
H3087       H  0.12054608  0.66577246  0.33635066     0.09500
H3088       H  0.10493402  0.68799192  0.31104347     0.13100
H3089       H  0.06088308  0.65564875  0.36568667     0.11800
H3090       H  0.02985064  0.67075632  0.35100446     0.13000
H3091       H  0.01227558  0.69097782  0.32399914     0.12100
H3092       H  0.08984123  0.70429198  0.28725298     0.09100
H3093       H  0.07130734  0.72312042  0.26097904     0.12400
H3094       H  0.01293880  0.71077277  0.29179748     0.14300
C3095       C  0.89021399  0.38485148  0.64524149    -0.01200
C3096       C  0.89533193  0.40626735  0.64541160    -0.09300
C3097       C  0.88587711  0.42013339  0.65942894    -0.18100
C3098       C  0.87087142  0.41322338  0.67402530     0.04300
C3099       C  0.86617604  0.39157878  0.67439435     0.18500
C3100       C  0.87634240  0.37772077  0.66077824    -0.19500
C3101       C  0.85101086  0.38385945  0.68806454    -0.20800
C3102       C  0.84001271  0.39728110  0.70110567    -0.19300
C3103       C  0.84429990  0.41867973  0.70120370     0.19900
C3104       C  0.86013761  0.42696460  0.68806933     0.02000
C3105       C  0.86434403  0.44862370  0.68952000    -0.14100
C3106       C  0.85274779  0.46155213  0.70286680    -0.11800
C3107       C  0.83648443  0.45338609  0.71493714     0.01500
C3108       C  0.83258750  0.43187933  0.71422052    -0.23900
H3109       H  0.90698160  0.41260585  0.63502029     0.09500
H3110       H  0.89048391  0.43625210  0.65826880     0.13100
H3111       H  0.87274079  0.36120876  0.66155654     0.11800
H3112       H  0.84730530  0.36736566  0.68835586     0.13000
H3113       H  0.82803892  0.39086991  0.71118477     0.12100
H3114       H  0.87640942  0.45604884  0.68047565     0.09100
H3115       H  0.85603764  0.47812398  0.70318170     0.12400
H3116       H  0.82019540  0.42537920  0.72374085     0.14300
C3117       C  0.91370336  0.37974781  0.61306682    -0.01200
C3118       C  0.93544511  0.37702236  0.61080852    -0.09300
C3119       C  0.94703586  0.38945893  0.59700729    -0.18100
C3120       C  0.93724109  0.40466301  0.58433897     0.04300
C3121       C  0.91511249  0.40583217  0.58503470     0.18500
C3122       C  0.90375311  0.39351791  0.59909004    -0.19500
C3123       C  0.90433798  0.41970444  0.57206979    -0.20800
C3124       C  0.91509591  0.43295868  0.55879660    -0.19300
C3125       C  0.93691724  0.43293743  0.55841326     0.19900
C3126       C  0.94842872  0.41880171  0.57106591     0.02000
C3127       C  0.97051820  0.41994383  0.57021678    -0.14100
C3128       C  0.98062426  0.43463796  0.55743555    -0.11800
C3129       C  0.96906884  0.44857423  0.54509055     0.01500
C3130       C  0.94720004  0.44734631  0.54561833    -0.23900
H3131       H  0.94384501  0.36551611  0.61983181     0.09500
H3132       H  0.96365331  0.38683263  0.59655361     0.13100
H3133       H  0.88695661  0.39538739  0.59990840     0.11800
H3134       H  0.88744322  0.42048393  0.57236367     0.13000
H3135       H  0.90626241  0.44364983  0.54907803     0.12100
H3136       H  0.98034760  0.40994480  0.57954890     0.09100
H3137       H  0.99750867  0.43521294  0.55738598     0.12400
H3138       H  0.93793104  0.45790563  0.53615697     0.14300
C3139       C  0.91332873  0.35447494  0.64473360    -0.01200
C3140       C  0.92859165  0.36392308  0.65746831    -0.09300
C3141       C  0.93854059  0.35308617  0.67349981    -0.18100
C3142       C  0.93369757  0.33205002  0.67771037     0.04300
C3143       C  0.91919446  0.32195065  0.66433564     0.18500
C3144       C  0.90891324  0.33318639  0.64841428    -0.19500
C3145       C  0.91470733  0.30075113  0.66722984    -0.20800
C3146       C  0.92423953  0.28943762  0.68320458    -0.19300
C3147       C  0.93798547  0.29917903  0.69715288     0.19900
C3148       C  0.94263781  0.32073365  0.69478768     0.02000
C3149       C  0.95563345  0.33016733  0.70992994    -0.14100
C3150       C  0.96404924  0.31861202  0.72637342    -0.11800
C3151       C  0.96004824  0.29719882  0.72834661     0.01500
C3152       C  0.94692199  0.28757838  0.71362405    -0.23900
H3153       H  0.93236653  0.38026170  0.65540656     0.09500
H3154       H  0.94993105  0.36170590  0.68236763     0.13100
H3155       H  0.89686216  0.32527260  0.63970978     0.11800
H3156       H  0.90379377  0.29282667  0.65700976     0.13000
H3157       H  0.92052320  0.27303587  0.68489944     0.12100
H3158       H  0.95933494  0.34655523  0.70974333     0.09100
H3159       H  0.97393855  0.32657074  0.73755579     0.12400
H3160       H  0.94342979  0.27110122  0.71511444     0.14300
C3161       C  0.87903660  0.41776496  0.37646103    -0.01200
C3162       C  0.89154154  0.43360610  0.36764707    -0.09300
C3163       C  0.90496886  0.44562937  0.37990800    -0.18100
C3164       C  0.90610154  0.44273902  0.40175961     0.04300
C3165       C  0.89218195  0.42819178  0.41096199     0.18500
C3166       C  0.87876956  0.41622319  0.39847840    -0.19500
C3167       C  0.89182371  0.42542211  0.43266731    -0.20800
C3168       C  0.90511530  0.43673338  0.44547749    -0.19300
C3169       C  0.91933503  0.45083962  0.43687749     0.19900
C3170       C  0.92032305  0.45387069  0.41487825     0.02000
C3171       C  0.93576262  0.46758298  0.40704351    -0.14100
C3172       C  0.94935456  0.47806325  0.42057919    -0.11800
C3173       C  0.94774089  0.47548671  0.44226397     0.01500
C3174       C  0.93271909  0.46180279  0.45024482    -0.23900
H3175       H  0.89161041  0.43598178  0.35087166     0.09500
H3176       H  0.91429800  0.45702851  0.37181722     0.13100
H3177       H  0.86835465  0.40563234  0.40635867     0.11800
H3178       H  0.88119459  0.41439018  0.43980933     0.13000
H3179       H  0.90441751  0.43425962  0.46223539     0.12100
H3180       H  0.93793998  0.47025000  0.39054551     0.09100
H3181       H  0.96105878  0.48834864  0.41406658     0.12400
H3182       H  0.93172940  0.45929651  0.46699626     0.14300
C3183       C  0.84987409  0.61907149  0.61660458    -0.01200
C3184       C  0.82810946  0.61556914  0.61611387    -0.09300
C3185       C  0.81847918  0.60195563  0.63021962    -0.18100
C3186       C  0.83027644  0.59072530  0.64507288     0.04300
C3187       C  0.85235554  0.59262468  0.64416123     0.18500
C3188       C  0.86180031  0.60613986  0.62977941    -0.19500
C3189       C  0.86499580  0.58142114  0.65797925    -0.20800
C3190       C  0.85618338  0.56862822  0.67302339    -0.19300
C3191       C  0.83450394  0.56675007  0.67466080     0.19900
C3192       C  0.82111640  0.57765036  0.66074315     0.02000
C3193       C  0.79927570  0.57519096  0.66346339    -0.14100
C3194       C  0.79120917  0.56239226  0.67935465    -0.11800
C3195       C  0.80462623  0.55169038  0.69295929     0.01500
C3196       C  0.82624707  0.55403689  0.69035560    -0.23900
H3197       H  0.81814967  0.62324454  0.60487824     0.09500
H3198       H  0.80175711  0.60054310  0.62913159     0.13100
H3199       H  0.87865974  0.60755367  0.62963745     0.11800
H3200       H  0.88184123  0.58275697  0.65732177     0.13000
H3201       H  0.86643128  0.56028688  0.68361966     0.12100
H3202       H  0.78807833  0.58309267  0.65367921     0.09100
H3203       H  0.77446241  0.56090062  0.68099374     0.12400
H3204       H  0.83693236  0.54596525  0.70073353     0.14300
C3205       C  0.87659479  0.62291453  0.58881961    -0.01200
C3206       C  0.89846952  0.62445741  0.59107835    -0.09300
C3207       C  0.91210851  0.61258223  0.57901790    -0.18100
C3208       C  0.90468610  0.59786168  0.56445765     0.04300
C3209       C  0.88276823  0.59513228  0.56284545     0.18500
C3210       C  0.86904354  0.60761757  0.57481796    -0.19500
C3211       C  0.87475635  0.57967418  0.54957730    -0.20800
C3212       C  0.88809107  0.56667551  0.53820463    -0.19300
C3213       C  0.90978530  0.56916436  0.53934291     0.19900
C3214       C  0.91832856  0.58521631  0.55206922     0.02000
C3215       C  0.94019726  0.58796173  0.55185106    -0.14100
C3216       C  0.95308683  0.57474844  0.54031035    -0.11800
C3217       C  0.94481527  0.55822374  0.52859310     0.01500
C3218       C  0.92304698  0.55564588  0.52799106    -0.23900
H3219       H  0.90559987  0.63434753  0.60271063     0.09500
H3220       H  0.92847838  0.61477467  0.58211489     0.13100
H3221       H  0.85234366  0.60533521  0.57343909     0.11800
H3222       H  0.85806182  0.57736986  0.54826406     0.13000
H3223       H  0.88137841  0.55462151  0.52840559     0.12100
H3224       H  0.94788451  0.60028440  0.56032281     0.09100
H3225       H  0.96978340  0.57725048  0.54101618     0.12400
H3226       H  0.91642770  0.54309982  0.51875430     0.14300
C3227       C  0.12757019  0.39195719  0.41067388    -0.01200
C3228       C  0.13160339  0.39666412  0.43183130    -0.09300
C3229       C  0.11893484  0.41077234  0.44288739    -0.18100
C3230       C  0.10236269  0.42145494  0.43289895     0.04300
C3231       C  0.10024947  0.41885273  0.41097053     0.18500
C3232       C  0.11259660  0.40431528  0.40027656    -0.19500
C3233       C  0.08532884  0.43026896  0.39982157    -0.20800
C3234       C  0.07182786  0.44372006  0.41014646    -0.19300
C3235       C  0.07247959  0.44556295  0.43193895     0.19900
C3236       C  0.08772063  0.43449654  0.44371799     0.02000
C3237       C  0.08698460  0.43630326  0.46578206    -0.14100
C3238       C  0.07161815  0.44843918  0.47565597    -0.11800
C3239       C  0.05670469  0.45937381  0.46389340     0.01500
C3240       C  0.05751744  0.45801373  0.44200058    -0.23900
H3241       H  0.14427954  0.38928546  0.44016323     0.09500
H3242       H  0.12249690  0.41311829  0.45921112     0.13100
H3243       H  0.10964207  0.40173824  0.38380946     0.11800
H3244       H  0.08391549  0.42859131  0.38300562     0.13000
H3245       H  0.06032164  0.45220992  0.40107545     0.12100
H3246       H  0.09772129  0.42803411  0.47579297     0.09100
H3247       H  0.07139173  0.44920357  0.49257880     0.12400
H3248       H  0.04606444  0.46627288  0.43264147     0.14300
C3249       C  0.11481853  0.59097403  0.62170961    -0.01200
C3250       C  0.09383935  0.59695943  0.61875462    -0.09300
C3251       C  0.08016162  0.58508448  0.60681748    -0.18100
C3252       C  0.08680410  0.56669491  0.59666502     0.04300
C3253       C  0.10808344  0.56088782  0.59864179     0.18500
C3254       C  0.12186546  0.57322316  0.61058844    -0.19500
C3255       C  0.11552554  0.54304183  0.58832600    -0.20800
C3256       C  0.10234151  0.53112744  0.57572114    -0.19300
C3257       C  0.08136431  0.53674521  0.57310140     0.19900
C3258       C  0.07324949  0.55443577  0.58388782     0.02000
C3259       C  0.05196294  0.55941019  0.58106923    -0.14100
C3260       C  0.03970225  0.54832578  0.56703142    -0.11800
C3261       C  0.04790459  0.53158104  0.55561949     0.01500
C3262       C  0.06857457  0.52530432  0.55922418    -0.23900
H3263       H  0.08779692  0.61149374  0.62483450     0.09500
H3264       H  0.06457099  0.59119593  0.60540317     0.13100
H3265       H  0.13825599  0.56905993  0.61117969     0.11800
H3266       H  0.13173003  0.53840844  0.58980471     0.13000
H3267       H  0.10868513  0.51762565  0.56769741     0.12100
H3268       H  0.04430667  0.57203393  0.58913656     0.09100
H3269       H  0.02366225  0.55321069  0.56472942     0.12400
H3270       H  0.07500277  0.51233683  0.55040479     0.14300
C3271       C  0.14488605  0.59406286  0.64929701    -0.01200
C3272       C  0.16027531  0.60595854  0.65957639    -0.09300
C3273       C  0.17466502  0.59687999  0.67310766    -0.18100
C3274       C  0.17452048  0.57522786  0.67692141     0.04300
C3275       C  0.15866562  0.56313833  0.66719514     0.18500
C3276       C  0.14356593  0.57269652  0.65433253    -0.19500
C3277       C  0.15836677  0.54144874  0.66984105    -0.20800
C3278       C  0.17401849  0.53143467  0.68113427    -0.19300
C3279       C  0.18990636  0.54292651  0.69076115     0.19900
C3280       C  0.18992378  0.56507445  0.68950165     0.02000
C3281       C  0.20551291  0.57603972  0.70071189    -0.14100
C3282       C  0.22097091  0.56538497  0.71182654    -0.11800
C3283       C  0.22157319  0.54360665  0.71183277     0.01500
C3284       C  0.20592915  0.53241517  0.70149671    -0.23900
H3285       H  0.16160662  0.62252143  0.65653493     0.09500
H3286       H  0.18621065  0.60716832  0.67968082     0.13100
H3287       H  0.13113773  0.56318942  0.64809768     0.11800
H3288       H  0.14634911  0.53207672  0.66251211     0.13000
H3289       H  0.17372362  0.51456604  0.68230069     0.12100
H3290       H  0.20615553  0.59282831  0.70127042     0.09100
H3291       H  0.23287923  0.57419899  0.71997821     0.12400
H3292       H  0.20625477  0.51549452  0.70185618     0.14300
C3293       C  0.96268271  0.71359941  0.78043384    -0.01200
C3294       C  0.95055359  0.72458478  0.79503346    -0.09300
C3295       C  0.94053093  0.71416686  0.81142166    -0.18100
C3296       C  0.94222660  0.69225935  0.81367525     0.04300
C3297       C  0.95475966  0.68126234  0.79896552     0.18500
C3298       C  0.96493460  0.69194842  0.78277870    -0.19500
C3299       C  0.95667650  0.65954486  0.80013083    -0.20800
C3300       C  0.94571509  0.64835623  0.81509057    -0.19300
C3301       C  0.93284596  0.65864193  0.82947219     0.19900
C3302       C  0.93140226  0.68074071  0.82946431     0.02000
C3303       C  0.91906241  0.69022240  0.84515831    -0.14100
C3304       C  0.90737855  0.67820635  0.85916699    -0.11800
C3305       C  0.90702638  0.65625560  0.85771250     0.01500
C3306       C  0.92098044  0.64680743  0.84350682    -0.23900
H3307       H  0.94856228  0.74131523  0.79366660     0.09500
H3308       H  0.93116329  0.72361001  0.82176567     0.13100
H3309       H  0.97428296  0.68321030  0.77165636     0.11800
H3310       H  0.96630658  0.65108599  0.78904218     0.13000
H3311       H  0.94707346  0.63149230  0.81520717     0.12100
H3312       H  0.91816145  0.70691885  0.84703139     0.09100
H3313       H  0.89863003  0.68642841  0.87103184     0.12400
H3314       H  0.92182533  0.62993115  0.84269458     0.14300
C3315       C  0.08752368  0.85034903  0.85701498    -0.01200
C3316       C  0.06601692  0.84661057  0.85947357    -0.09300
C3317       C  0.05523184  0.83367321  0.84553685    -0.18100
C3318       C  0.06569617  0.82333265  0.82902332     0.04300
C3319       C  0.08771936  0.82520993  0.82803992     0.18500
C3320       C  0.09826155  0.83853690  0.84180518    -0.19500
C3321       C  0.09912254  0.81416175  0.81298948    -0.20800
C3322       C  0.08901332  0.80171458  0.79838836    -0.19300
C3323       C  0.06722629  0.80046907  0.79813723     0.19900
C3324       C  0.05520040  0.81126258  0.81342291     0.02000
C3325       C  0.03322041  0.81012054  0.81190962    -0.14100
C3326       C  0.02364904  0.79890090  0.79579409    -0.11800
C3327       C  0.03558714  0.78827884  0.78077329     0.01500
C3328       C  0.05740477  0.78892571  0.78228341    -0.23900
H3329       H  0.05719947  0.85371528  0.87198917     0.09500
H3330       H  0.03871438  0.83193382  0.84817165     0.13100
H3331       H  0.11498556  0.84046400  0.84014532     0.11800
H3332       H  0.11598273  0.81530993  0.81237872     0.13000
H3333       H  0.09828106  0.79347148  0.78683658     0.12100
H3334       H  0.02301176  0.81822943  0.82258730     0.09100
H3335       H  0.00677029  0.79875344  0.79499138     0.12400
H3336       H  0.06685509  0.78092332  0.77070137     0.14300
C3337       C  0.11895372  0.62198172  0.64699885    -0.01200
C3338       C  0.12372732  0.64342903  0.64637121    -0.09300
C3339       C  0.11242978  0.65794717  0.65815016    -0.18100
C3340       C  0.09576783  0.65167529  0.67117392     0.04300
C3341       C  0.09169907  0.62997242  0.67283151     0.18500
C3342       C  0.10382580  0.61546382  0.66161600    -0.19500
C3343       C  0.07513838  0.62287897  0.68519436    -0.20800
C3344       C  0.06207853  0.63694313  0.69544215    -0.19300
C3345       C  0.06555160  0.65845623  0.69403473     0.19900
C3346       C  0.08279696  0.66611941  0.68233070     0.02000
C3347       C  0.08608019  0.68792620  0.68206888    -0.14100
C3348       C  0.07247790  0.70151622  0.69239709    -0.11800
C3349       C  0.05495930  0.69400130  0.70312911     0.01500
C3350       C  0.05169713  0.67238287  0.70402329    -0.23900
H3351       H  0.13645041  0.64925280  0.63696967     0.09500
H3352       H  0.11693496  0.67403476  0.65640925     0.13100
H3353       H  0.10062714  0.59893260  0.66323683     0.11800
H3354       H  0.07192247  0.60633434  0.68651458     0.13000
H3355       H  0.04909747  0.63094259  0.70446294     0.12100
H3356       H  0.09893384  0.69502291  0.67390526     0.09100
H3357       H  0.07532242  0.71814098  0.69131470     0.12400
H3358       H  0.03825796  0.66639230  0.71236602     0.14300
C3359       C  0.87336521  0.65198572  0.61615472    -0.01200
C3360       C  0.88416678  0.66804578  0.60568083    -0.09300
C3361       C  0.89782315  0.68130756  0.61622060    -0.18100
C3362       C  0.90145210  0.67903973  0.63786315     0.04300
C3363       C  0.88924655  0.66416259  0.64885792     0.18500
C3364       C  0.87476105  0.65158691  0.63817933    -0.19500
C3365       C  0.89217541  0.66127009  0.67036313    -0.20800
C3366       C  0.90769020  0.67209326  0.68098054    -0.19300
C3367       C  0.92039109  0.68639365  0.67045223     0.19900
C3368       C  0.91711096  0.69053962  0.64887175     0.02000
C3369       C  0.93000230  0.70564618  0.63920084    -0.14100
C3370       C  0.94582464  0.71572716  0.65035781    -0.11800
C3371       C  0.94948338  0.71099725  0.67141102     0.01500
C3372       C  0.93651445  0.69643614  0.68138379    -0.23900
H3373       H  0.88292666  0.66956342  0.58885574     0.09500
H3374       H  0.90593333  0.69259199  0.60677886     0.13100
H3375       H  0.86527560  0.64107707  0.64727571     0.11800
H3376       H  0.88288016  0.65002681  0.67890333     0.13000
H3377       H  0.90995223  0.66904684  0.69750085     0.12100
H3378       H  0.92831747  0.70999375  0.62301656     0.09100
H3379       H  0.95541315  0.72710415  0.64236289     0.12400
H3380       H  0.93888115  0.69294929  0.69780996     0.14300
C3381       C  0.71268341  0.22719475  0.53829994    -0.01200
C3382       C  0.72259219  0.21302408  0.55171599    -0.09300
C3383       C  0.71133143  0.19694888  0.56128403    -0.18100
C3384       C  0.68963771  0.19456098  0.55775827     0.04300
C3385       C  0.67989388  0.20844539  0.54344548     0.18500
C3386       C  0.69138272  0.22446702  0.53395311    -0.19500
C3387       C  0.65860546  0.20655889  0.53896334    -0.20800
C3388       C  0.64657726  0.19150259  0.54885054    -0.19300
C3389       C  0.65549918  0.17803695  0.56357159     0.19900
C3390       C  0.67715506  0.17922537  0.56813776     0.02000
C3391       C  0.68515626  0.16556560  0.58347659    -0.14100
C3392       C  0.67220289  0.15159907  0.59404852    -0.11800
C3393       C  0.65071275  0.15010071  0.58943550     0.01500
C3394       C  0.64268239  0.16375560  0.57413358    -0.23900
H3395       H  0.73906887  0.21455385  0.55513642     0.09500
H3396       H  0.72002356  0.18675801  0.57147491     0.13100
H3397       H  0.68353771  0.23507061  0.52332492     0.11800
H3398       H  0.65112671  0.21700007  0.52792717     0.13000
H3399       H  0.63007958  0.19064012  0.54522950     0.12100
H3400       H  0.70129514  0.16574420  0.58818644     0.09100
H3401       H  0.67929063  0.14264505  0.60645020     0.12400
H3402       H  0.62610801  0.16350101  0.57074090     0.14300
C3403       C  0.69444947  0.30164564  0.44669092    -0.01200
C3404       C  0.70189229  0.31154293  0.42866446    -0.09300
C3405       C  0.68822844  0.32097136  0.41457739    -0.18100
C3406       C  0.66642671  0.32058548  0.41788729     0.04300
C3407       C  0.65882451  0.30956465  0.43561043     0.18500
C3408       C  0.67283789  0.30053866  0.44999406    -0.19500
C3409       C  0.63730193  0.30784329  0.43895029    -0.20800
C3410       C  0.62317507  0.31711256  0.42523438    -0.19300
C3411       C  0.63022022  0.32892716  0.40823225     0.19900
C3412       C  0.65193834  0.33093221  0.40440334     0.02000
C3413       C  0.65822371  0.34349759  0.38743316    -0.14100
C3414       C  0.64368672  0.35445388  0.37549717    -0.11800
C3415       C  0.62215638  0.35355918  0.37993050     0.01500
C3416       C  0.61567331  0.33927277  0.39539308    -0.23900
H3417       H  0.71850668  0.31267070  0.42575686     0.09500
H3418       H  0.69528360  0.32847404  0.40128499     0.13100
H3419       H  0.66693071  0.29274080  0.46381586     0.11800
H3420       H  0.63134740  0.29929380  0.45228465     0.13000
H3421       H  0.60662355  0.31553021  0.42829897     0.12100
H3422       H  0.67433387  0.34553672  0.38313024     0.09100
H3423       H  0.64964056  0.36332159  0.36245040     0.12400
H3424       H  0.59912402  0.33725085  0.39825519     0.14300
C3425       C  0.88314309  0.35651377  0.61756947    -0.01200
C3426       C  0.86198526  0.36265556  0.61795026    -0.09300
C3427       C  0.84677269  0.35185326  0.60692606    -0.18100
C3428       C  0.85191866  0.33469228  0.59415430     0.04300
C3429       C  0.87331657  0.32934172  0.59208081     0.18500
C3430       C  0.88863140  0.34023688  0.60363970    -0.19500
C3431       C  0.87922358  0.31342870  0.57819186    -0.20800
C3432       C  0.86433056  0.30310956  0.56604012    -0.19300
C3433       C  0.84307968  0.30803920  0.56787970     0.19900
C3434       C  0.83658695  0.32346444  0.58252198     0.02000
C3435       C  0.81497277  0.32728532  0.58470332    -0.14100
C3436       C  0.80060385  0.31777250  0.57151301    -0.11800
C3437       C  0.80708405  0.30369162  0.55615163     0.01500
C3438       C  0.82826466  0.29824289  0.55477379    -0.23900
H3439       H  0.85677437  0.37639556  0.62622185     0.09500
H3440       H  0.83114009  0.35794716  0.60812109     0.13100
H3441       H  0.90493271  0.33601858  0.60192711     0.11800
H3442       H  0.89551294  0.30923741  0.57638586     0.13000
H3443       H  0.86948053  0.29128427  0.55505207     0.12100
H3444       H  0.80863991  0.33776257  0.59627632     0.09100
H3445       H  0.78425402  0.32192144  0.57291214     0.12400
H3446       H  0.83330248  0.28730982  0.54283442     0.14300
C3447       C  0.71151325  0.33974554  0.54851327    -0.01200
C3448       C  0.71305088  0.33495049  0.56977965    -0.09300
C3449       C  0.70164307  0.34620553  0.58463274    -0.18100
C3450       C  0.68794499  0.36243176  0.57850029     0.04300
C3451       C  0.68670049  0.36731226  0.55679779     0.18500
C3452       C  0.69864343  0.35614080  0.54209482    -0.19500
C3453       C  0.67307141  0.38288414  0.54982083    -0.20800
C3454       C  0.66014749  0.39330810  0.56382418    -0.19300
C3455       C  0.66065336  0.38856480  0.58519947     0.19900
C3456       C  0.67491425  0.37348719  0.59295321     0.02000
C3457       C  0.67540495  0.37014390  0.61479567    -0.14100
C3458       C  0.66143804  0.38038669  0.62812687    -0.11800
C3459       C  0.64592900  0.39393649  0.62034184     0.01500
C3460       C  0.64673934  0.39875033  0.59877460    -0.23900
H3461       H  0.72290252  0.32217091  0.57488895     0.09500
H3462       H  0.70340042  0.34141427  0.60068664     0.13100
H3463       H  0.69731448  0.35963400  0.52554851     0.11800
H3464       H  0.67206702  0.38672054  0.53334186     0.13000
H3465       H  0.64943927  0.40496976  0.55782617     0.12100
H3466       H  0.68640312  0.35969714  0.62208489     0.09100
H3467       H  0.66234339  0.37718553  0.64472801     0.12400
H3468       H  0.63670752  0.41062485  0.59219618     0.14300
C3469       C  0.79164323  0.33478667  0.45143188    -0.01200
C3470       C  0.78308213  0.35260088  0.44220010    -0.09300
C3471       C  0.79399263  0.36329496  0.42661548    -0.18100
C3472       C  0.81407940  0.35662882  0.42017962     0.04300
C3473       C  0.82310688  0.33921111  0.43055436     0.18500
C3474       C  0.81161933  0.32813501  0.44557697    -0.19500
C3475       C  0.84358624  0.33308360  0.42598035    -0.20800
C3476       C  0.85548978  0.34423413  0.41164536    -0.19300
C3477       C  0.84685212  0.36111979  0.40077109     0.19900
C3478       C  0.82577005  0.36695440  0.40425462     0.02000
C3479       C  0.81720475  0.38264523  0.39143484    -0.14100
C3480       C  0.82947563  0.39326323  0.37692319    -0.11800
C3481       C  0.85109208  0.38928308  0.37503438     0.01500
C3482       C  0.85928025  0.37239992  0.38664863    -0.23900
H3483       H  0.76763609  0.35790095  0.44663096     0.09500
H3484       H  0.78652292  0.37694071  0.42016977     0.13100
H3485       H  0.81829094  0.31440990  0.45293261     0.11800
H3486       H  0.85061725  0.31989359  0.43392308     0.13000
H3487       H  0.87150080  0.33949314  0.40890084     0.12100
H3488       H  0.80091542  0.38685595  0.39208047     0.09100
H3489       H  0.82164399  0.40495510  0.36769350     0.12400
H3490       H  0.87569087  0.36851927  0.38525683     0.14300
C3491       C  0.14479682  0.88604185  0.61826672    -0.01200
C3492       C  0.14098057  0.90773385  0.61880097    -0.09300
C3493       C  0.15123877  0.92075906  0.63290939    -0.18100
C3494       C  0.16500944  0.91262410  0.64805151     0.04300
C3495       C  0.16719836  0.89065239  0.64926836     0.18500
C3496       C  0.15744569  0.87772602  0.63437821    -0.19500
C3497       C  0.17886681  0.88174932  0.66553051    -0.20800
C3498       C  0.18837142  0.89430457  0.68059986    -0.19300
C3499       C  0.18724245  0.91610282  0.67924173     0.19900
C3500       C  0.17601303  0.92551955  0.66253988     0.02000
C3501       C  0.17656413  0.94745801  0.66078215    -0.14100
C3502       C  0.18700491  0.95959853  0.67550274    -0.11800
C3503       C  0.19710123  0.95046025  0.69267980     0.01500
C3504       C  0.19726290  0.92860214  0.69440152    -0.23900
H3505       H  0.12951308  0.91505076  0.60888648     0.09500
H3506       H  0.14731717  0.93711503  0.63220069     0.13100
H3507       H  0.15956955  0.86096989  0.63537576     0.11800
H3508       H  0.18038208  0.86495098  0.66679443     0.13000
H3509       H  0.19696028  0.88692162  0.69318906     0.12100
H3510       H  0.16935132  0.95569023  0.64797462     0.09100
H3511       H  0.18664764  0.97639908  0.67365946     0.12400
H3512       H  0.20521385  0.92132840  0.70747394     0.14300
C3513       C  0.11954826  0.85740714  0.61709024    -0.01200
C3514       C  0.10250964  0.86663403  0.62757780    -0.09300
C3515       C  0.08811478  0.85452986  0.63855511    -0.18100
C3516       C  0.09097525  0.83279197  0.64064579     0.04300
C3517       C  0.10982245  0.82401978  0.63294392     0.18500
C3518       C  0.12370330  0.83617771  0.62117847    -0.19500
C3519       C  0.11463875  0.80307440  0.63687121    -0.20800
C3520       C  0.10083021  0.79050069  0.64786415    -0.19300
C3521       C  0.08146654  0.79831132  0.65430376     0.19900
C3522       C  0.07604657  0.81948603  0.65042166     0.02000
C3523       C  0.05571087  0.82620762  0.65590207    -0.14100
C3524       C  0.04159523  0.81254285  0.66537203    -0.11800
C3525       C  0.04747805  0.79203832  0.66996252     0.01500
C3526       C  0.06740645  0.78501802  0.66450482    -0.23900
H3527       H  0.09966932  0.88324482  0.62618634     0.09500
H3528       H  0.07502682  0.86259736  0.64546220     0.13100
H3529       H  0.13781231  0.82890362  0.61537283     0.11800
H3530       H  0.12920341  0.79637135  0.63142865     0.13000
H3531       H  0.10506543  0.77438410  0.65080263     0.12100
H3532       H  0.05021031  0.84179940  0.65270701     0.09100
H3533       H  0.02625421  0.81819175  0.66974544     0.12400
H3534       H  0.07190973  0.76910521  0.66816928     0.14300
C3535       C  0.12020517  0.88282274  0.58609890    -0.01200
C3536       C  0.09934542  0.87727490  0.58185991    -0.09300
C3537       C  0.08682033  0.88925833  0.56879372    -0.18100
C3538       C  0.09459912  0.90739382  0.55912496     0.04300
C3539       C  0.11626908  0.91153474  0.56097964     0.18500
C3540       C  0.12900549  0.89864702  0.57353646    -0.19500
C3541       C  0.12484252  0.92898995  0.55100509    -0.20800
C3542       C  0.11213344  0.94292481  0.54007422    -0.19300
C3543       C  0.09054241  0.93971004  0.53877219     0.19900
C3544       C  0.08156238  0.92165224  0.54798411     0.02000
C3545       C  0.05975340  0.91901610  0.54636991    -0.14100
C3546       C  0.04735104  0.93376726  0.53637620    -0.11800
C3547       C  0.05603385  0.95182565  0.52767627     0.01500
C3548       C  0.07776089  0.95462202  0.52874581    -0.23900
H3549       H  0.09235458  0.86349309  0.58857228     0.09500
H3550       H  0.07100628  0.88396358  0.56684486     0.13100
H3551       H  0.14550433  0.90205311  0.57499531     0.11800
H3552       H  0.14139380  0.93221197  0.55216090     0.13000
H3553       H  0.11918387  0.95653481  0.53296014     0.12100
H3554       H  0.05162038  0.90594275  0.55305394     0.09100
H3555       H  0.03066172  0.93116021  0.53595886     0.12400
H3556       H  0.08469439  0.96851970  0.52207524     0.14300
C3557       C  0.16894224  0.05350131  0.70779093    -0.01200
C3558       C  0.17968818  0.06475822  0.69239348    -0.09300
C3559       C  0.17027512  0.08144365  0.68210762    -0.18100
C3560       C  0.14958557  0.08741451  0.68678358     0.04300
C3561       C  0.13846059  0.07556125  0.70189865     0.18500
C3562       C  0.14827451  0.05899566  0.71245070    -0.19500
C3563       C  0.11751835  0.08013336  0.70613332    -0.20800
C3564       C  0.10717215  0.09570568  0.69506743    -0.19300
C3565       C  0.11771778  0.10750023  0.67999933     0.19900
C3566       C  0.13927702  0.10416337  0.67634004     0.02000
C3567       C  0.14953740  0.11770036  0.66231128    -0.14100
C3568       C  0.13834194  0.13212314  0.65041511    -0.11800
C3569       C  0.11640556  0.13308180  0.65154038     0.01500
C3570       C  0.10661775  0.12197836  0.66788163    -0.23900
H3571       H  0.19562941  0.06081778  0.68834707     0.09500
H3572       H  0.17944301  0.08907605  0.67024347     0.13100
H3573       H  0.13973519  0.05027174  0.72416876     0.11800
H3574       H  0.10891722  0.07120610  0.71763995     0.13000
H3575       H  0.09074930  0.09837183  0.69813507     0.12100
H3576       H  0.16621750  0.11744303  0.66013811     0.09100
H3577       H  0.14711189  0.14196096  0.63992504     0.12400
H3578       H  0.08987823  0.12330274  0.66992455     0.14300
C3579       C  0.08850887  0.12884132  0.62341487    -0.01200
C3580       C  0.09218846  0.10708637  0.62445701    -0.09300
C3581       C  0.08194826  0.09310441  0.61144069    -0.18100
C3582       C  0.06758521  0.10002398  0.59633446     0.04300
C3583       C  0.06293146  0.12167886  0.59558624     0.18500
C3584       C  0.07372680  0.13583253  0.60859203    -0.19500
C3585       C  0.04769860  0.12901247  0.58167650    -0.20800
C3586       C  0.03697830  0.11522729  0.56863251    -0.19300
C3587       C  0.04188675  0.09389473  0.56848707     0.19900
C3588       C  0.05774990  0.08613229  0.58193565     0.02000
C3589       C  0.06355454  0.06490082  0.57997950    -0.14100
C3590       C  0.05361803  0.05182579  0.56571185    -0.11800
C3591       C  0.03727577  0.05922240  0.55330223     0.01500
C3592       C  0.03137271  0.08027280  0.55473395    -0.23900
H3593       H  0.10398470  0.10037654  0.63443650     0.09500
H3594       H  0.08575872  0.07686410  0.61358608     0.13100
H3595       H  0.07086523  0.15243920  0.60703886     0.11800
H3596       H  0.04388436  0.14548276  0.58104179     0.13000
H3597       H  0.02508293  0.12136178  0.55826562     0.12100
H3598       H  0.07610868  0.05802132  0.58882090     0.09100
H3599       H  0.05857514  0.03568501  0.56453984     0.12400
H3600       H  0.01905450  0.08614347  0.54469785     0.14300
C3601       C  0.03613719  0.22041905  0.72647417    -0.01200
C3602       C  0.05728820  0.22456225  0.72269440    -0.09300
C3603       C  0.06830009  0.21380532  0.70715566    -0.18100
C3604       C  0.05853636  0.19826605  0.69485544     0.04300
C3605       C  0.03701324  0.19432036  0.69853226     0.18500
C3606       C  0.02607905  0.20538651  0.71410828    -0.19500
C3607       C  0.02655127  0.17913763  0.68682197    -0.20800
C3608       C  0.03699713  0.16768459  0.67157861    -0.19300
C3609       C  0.05822675  0.17102693  0.66766325     0.19900
C3610       C  0.06933548  0.18632589  0.67924696     0.02000
C3611       C  0.09086982  0.18851463  0.67511976    -0.14100
C3612       C  0.10093480  0.17580491  0.66046787    -0.11800
C3613       C  0.09003801  0.16074312  0.64869201     0.01500
C3614       C  0.06847387  0.15860628  0.65265091    -0.23900
H3615       H  0.06547710  0.23616132  0.73187766     0.09500
H3616       H  0.08446314  0.21796057  0.70523276     0.13100
H3617       H  0.00975037  0.20195804  0.71686026     0.11800
H3618       H  0.01016514  0.17600206  0.68955003     0.13000
H3619       H  0.02842089  0.15595342  0.66291248     0.12100
H3620       H  0.10054968  0.19948150  0.68340519     0.09100
H3621       H  0.11767087  0.17734206  0.65869171     0.12400
H3622       H  0.05959237  0.14643063  0.64510724     0.14300
C3623       C  0.05124072  0.03737087  0.44283976    -0.01200
C3624       C  0.04221105  0.05054398  0.42785905    -0.09300
C3625       C  0.05438576  0.06025264  0.41258774    -0.18100
C3626       C  0.07620839  0.05697493  0.41158970     0.04300
C3627       C  0.08522495  0.04291922  0.42623449     0.18500
C3628       C  0.07280652  0.03352742  0.44182690    -0.19500
C3629       C  0.10661755  0.03847278  0.42530418    -0.20800
C3630       C  0.11932526  0.04802133  0.41044190    -0.19300
C3631       C  0.11109209  0.06263531  0.39638176     0.19900
C3632       C  0.08942981  0.06730219  0.39678577     0.02000
C3633       C  0.08209251  0.08281831  0.38302055    -0.14100
C3634       C  0.09565583  0.09367909  0.36991860    -0.11800
C3635       C  0.11725855  0.08915025  0.36907613     0.01500
C3636       C  0.12457046  0.07322298  0.38252759    -0.23900
H3637       H  0.02560713  0.05372857  0.42817192     0.09500
H3638       H  0.04619316  0.07016410  0.40173336     0.13100
H3639       H  0.07993442  0.02312190  0.45313363     0.11800
H3640       H  0.11361262  0.02760528  0.43624002     0.13000
H3641       H  0.13583323  0.04432516  0.41029593     0.12100
H3642       H  0.06601888  0.08775582  0.38273373     0.09100
H3643       H  0.08880350  0.10647531  0.36141739     0.12400
H3644       H  0.14114411  0.06985172  0.38302676     0.14300
C3645       C  0.14696728  0.09223324  0.34067695    -0.01200
C3646       C  0.16042626  0.10470391  0.32846549    -0.09300
C3647       C  0.17471436  0.09607834  0.31455147    -0.18100
C3648       C  0.17697432  0.07432098  0.31270394     0.04300
C3649       C  0.16363985  0.06147709  0.32494939     0.18500
C3650       C  0.14815120  0.07042821  0.33792693    -0.19500
C3651       C  0.16654640  0.03980259  0.32490390    -0.20800
C3652       C  0.18300102  0.03080334  0.31382140    -0.19300
C3653       C  0.19629224  0.04312156  0.30160299     0.19900
C3654       C  0.19279675  0.06493892  0.30001648     0.02000
C3655       C  0.20550138  0.07643172  0.28601992    -0.14100
C3656       C  0.22187615  0.06684659  0.27516367    -0.11800
C3657       C  0.22629991  0.04571061  0.27820576     0.01500
C3658       C  0.21326547  0.03384184  0.29117021    -0.23900
H3659       H  0.16037342  0.12151063  0.33021214     0.09500
H3660       H  0.18463514  0.10690102  0.30637244     0.13100
H3661       H  0.13788600  0.06020470  0.34650308     0.11800
H3662       H  0.15659001  0.02981820  0.33422738     0.13000
H3663       H  0.18536007  0.01408298  0.31483184     0.12100
H3664       H  0.20308110  0.09281426  0.28305438     0.09100
H3665       H  0.23160479  0.07615908  0.26495003     0.12400
H3666       H  0.21640352  0.01732167  0.29315070     0.14300
C3667       C  0.88724646  0.88706345  0.65147160    -0.01200
C3668       C  0.90911668  0.88706661  0.64877487    -0.09300
C3669       C  0.92203825  0.87327698  0.65956412    -0.18100
C3670       C  0.91385603  0.85847777  0.67364209     0.04300
C3671       C  0.89190170  0.85803328  0.67642233     0.18500
C3672       C  0.87891812  0.87173478  0.66500970    -0.19500
C3673       C  0.88304169  0.84374233  0.69041778    -0.20800
C3674       C  0.89550633  0.82955329  0.70130702    -0.19300
C3675       C  0.91715751  0.82907975  0.69830939     0.19900
C3676       C  0.92664729  0.84372922  0.68455607     0.02000
C3677       C  0.94849526  0.84255994  0.68180280    -0.14100
C3678       C  0.96017078  0.82684523  0.69124353    -0.11800
C3679       C  0.95076475  0.81200577  0.70417976     0.01500
C3680       C  0.92931446  0.81352681  0.70824224    -0.23900
H3681       H  0.91676632  0.89724878  0.63778085     0.09500
H3682       H  0.93845869  0.87454725  0.65627512     0.13100
H3683       H  0.86213244  0.87063503  0.66677317     0.11800
H3684       H  0.86631224  0.84341546  0.69283749     0.13000
H3685       H  0.88809480  0.81855970  0.71179764     0.12100
H3686       H  0.95703453  0.85309703  0.67190138     0.09100
H3687       H  0.97672586  0.82587559  0.68787819     0.12400
H3688       H  0.92191255  0.80187129  0.71800738     0.14300
C3689       C  0.88554560  0.91618624  0.62376099    -0.01200
C3690       C  0.89780756  0.93232021  0.63246764    -0.09300
C3691       C  0.91034580  0.94522397  0.61996228    -0.18100
C3692       C  0.91155585  0.94228547  0.59807366     0.04300
C3693       C  0.89920880  0.92614845  0.58923868     0.18500
C3694       C  0.88582002  0.91417786  0.60176729    -0.19500
C3695       C  0.90054358  0.92160439  0.56786323    -0.20800
C3696       C  0.91422842  0.93243407  0.55508754    -0.19300
C3697       C  0.92630950  0.94870279  0.56314018     0.19900
C3698       C  0.92478873  0.95436565  0.58460011     0.02000
C3699       C  0.93651981  0.97184994  0.59141826    -0.14100
C3700       C  0.94965167  0.98273069  0.57757898    -0.11800
C3701       C  0.95183070  0.97622222  0.55673839     0.01500
C3702       C  0.93993904  0.95929693  0.54970341    -0.23900
H3703       H  0.89794585  0.93469061  0.64924443     0.09500
H3704       H  0.91945590  0.95693337  0.62790951     0.13100
H3705       H  0.87597288  0.90307011  0.59388673     0.11800
H3706       H  0.89130740  0.90918251  0.56104297     0.13000
H3707       H  0.91523768  0.92814951  0.53870808     0.12100
H3708       H  0.93570085  0.97751106  0.60729221     0.09100
H3709       H  0.95856324  0.99587899  0.58333744     0.12400
H3710       H  0.94119463  0.95439363  0.53349990     0.14300
C3711       C  0.85898743  0.91625094  0.65248141    -0.01200
C3712       C  0.84692811  0.93200989  0.64291475    -0.09300
C3713       C  0.83224390  0.94356769  0.65414258    -0.18100
C3714       C  0.82881115  0.93986086  0.67563867     0.04300
C3715       C  0.84220407  0.92545632  0.68584782     0.18500
C3716       C  0.85762120  0.91458521  0.67449095    -0.19500
C3717       C  0.83960325  0.92134547  0.70722160    -0.20800
C3718       C  0.82337601  0.93053244  0.71844885    -0.19300
C3719       C  0.80948408  0.94431229  0.70868354     0.19900
C3720       C  0.81228500  0.94950640  0.68722564     0.02000
C3721       C  0.79804357  0.96368356  0.67813922    -0.14100
C3722       C  0.78140199  0.97178761  0.68960756    -0.11800
C3723       C  0.77825373  0.96625354  0.71060364     0.01500
C3724       C  0.79260935  0.95269523  0.72014847    -0.23900
H3725       H  0.84801573  0.93457944  0.62620767     0.09500
H3726       H  0.82331412  0.95474196  0.64529055     0.13100
H3727       H  0.86788160  0.90439209  0.68310042     0.11800
H3728       H  0.84981278  0.91043472  0.71518861     0.13000
H3729       H  0.82149521  0.92658129  0.73481649     0.12100
H3730       H  0.79915383  0.96870387  0.66211219     0.09100
H3731       H  0.77083707  0.98246418  0.68181709     0.12400
H3732       H  0.79048440  0.94838306  0.73639823     0.14300
C3733       C  0.94649374  0.06153129  0.48237481    -0.01200
C3734       C  0.92560576  0.05553744  0.48074685    -0.09300
C3735       C  0.91106873  0.06847293  0.47078084    -0.18100
C3736       C  0.91722134  0.08773461  0.46190064     0.04300
C3737       C  0.93833822  0.09406328  0.46459674     0.18500
C3738       C  0.95265813  0.08102053  0.47486960    -0.19500
C3739       C  0.94534416  0.11284908  0.45602795    -0.20800
C3740       C  0.93225377  0.12480779  0.44354700    -0.19300
C3741       C  0.91177623  0.11838379  0.43955416     0.19900
C3742       C  0.90361422  0.10036011  0.44943705     0.02000
C3743       C  0.88231255  0.09572311  0.44610964    -0.14100
C3744       C  0.87026645  0.10745303  0.43210451    -0.11800
C3745       C  0.87918930  0.12343459  0.41993398     0.01500
C3746       C  0.89961158  0.12973155  0.42531819    -0.23900
H3747       H  0.92073349  0.04034390  0.48630574     0.09500
H3748       H  0.89540511  0.06254374  0.46937578     0.13100
H3749       H  0.96893490  0.08550378  0.47600438     0.11800
H3750       H  0.96131517  0.11790637  0.45828911     0.13000
H3751       H  0.93840327  0.13886138  0.43644401     0.12100
H3752       H  0.87454090  0.08314206  0.45410440     0.09100
H3753       H  0.85398072  0.10344690  0.43008689     0.12400
H3754       H  0.90627090  0.14371340  0.41865551     0.14300
C3755       C  0.78962857  0.22604005  0.46807640    -0.01200
C3756       C  0.78001742  0.21282611  0.45357106    -0.09300
C3757       C  0.79115525  0.19644586  0.44436892    -0.18100
C3758       C  0.81251891  0.19329829  0.44896240     0.04300
C3759       C  0.82233060  0.20735796  0.46308400     0.18500
C3760       C  0.81070170  0.22307905  0.47296406    -0.19500
C3761       C  0.84381523  0.20607017  0.46674053    -0.20800
C3762       C  0.85592751  0.19161170  0.45599415    -0.19300
C3763       C  0.84665500  0.17743265  0.44218505     0.19900
C3764       C  0.82473750  0.17735726  0.43929315     0.02000
C3765       C  0.81604917  0.16127005  0.42696141    -0.14100
C3766       C  0.82879326  0.14696062  0.41645156    -0.11800
C3767       C  0.85068624  0.14877802  0.41704974     0.01500
C3768       C  0.85927276  0.16357356  0.43093392    -0.23900
H3769       H  0.76377194  0.21509303  0.44945836     0.09500
H3770       H  0.78290171  0.18698898  0.43313232     0.13100
H3771       H  0.81827803  0.23364306  0.48383283     0.11800
H3772       H  0.85140796  0.21679894  0.47740851     0.13000
H3773       H  0.87265100  0.19149770  0.45852099     0.12100
H3774       H  0.79941646  0.15917580  0.42548659     0.09100
H3775       H  0.82120879  0.13468990  0.40773972     0.12400
H3776       H  0.87605596  0.16481331  0.43242072     0.14300
C3777       C  0.97094684  0.95540840  0.44726778    -0.01200
C3778       C  0.95999222  0.96316241  0.42997572    -0.09300
C3779       C  0.94976743  0.94972530  0.41616440    -0.18100
C3780       C  0.95025180  0.92782179  0.41903572     0.04300
C3781       C  0.96169257  0.91991510  0.43634417     0.18500
C3782       C  0.97183158  0.93367327  0.45025199    -0.19500
C3783       C  0.96266936  0.89833621  0.43981628    -0.20800
C3784       C  0.95207777  0.88446921  0.42677798    -0.19300
C3785       C  0.94015625  0.89179366  0.40994142     0.19900
C3786       C  0.93939508  0.91354300  0.40566878     0.02000
C3787       C  0.92772843  0.92007829  0.38819947    -0.14100
C3788       C  0.91592805  0.90598935  0.37659799    -0.11800
C3789       C  0.91474318  0.88460445  0.38195011     0.01500
C3790       C  0.92853834  0.87757430  0.39768279    -0.23900
H3791       H  0.95888891  0.97981864  0.42730924     0.09500
H3792       H  0.94135658  0.95706051  0.40357067     0.13100
H3793       H  0.98028576  0.92741889  0.46353712     0.11800
H3794       H  0.97146999  0.89214068  0.45289343     0.13000
H3795       H  0.95290390  0.86791562  0.43013432     0.12100
H3796       H  0.92729049  0.93606767  0.38304460     0.09100
H3797       H  0.90789171  0.91231725  0.36318439     0.12400
H3798       H  0.92919652  0.86104251  0.40121892     0.14300
C3799       C  0.91438743  0.85366575  0.35792652    -0.01200
C3800       C  0.91277838  0.83169744  0.35907859    -0.09300
C3801       C  0.92366514  0.81871407  0.34516761    -0.18100
C3802       C  0.93736304  0.82709881  0.33008514     0.04300
C3803       C  0.94109299  0.84893648  0.33080372     0.18500
C3804       C  0.92978117  0.86180328  0.34451185    -0.19500
C3805       C  0.95560573  0.85802558  0.31730665    -0.20800
C3806       C  0.96586991  0.84604022  0.30243304    -0.19300
C3807       C  0.96151877  0.82475651  0.30034809     0.19900
C3808       C  0.94735702  0.81481153  0.31419118     0.02000
C3809       C  0.94328170  0.79330574  0.31087585    -0.14100
C3810       C  0.95253710  0.78239295  0.29416675    -0.11800
C3811       C  0.96620767  0.79250995  0.28036660     0.01500
C3812       C  0.97086918  0.81359950  0.28397928    -0.23900
H3813       H  0.90282289  0.82414699  0.37034868     0.09500
H3814       H  0.92105553  0.80215143  0.34654359     0.13100
H3815       H  0.93211129  0.87854161  0.34387480     0.11800
H3816       H  0.95878691  0.87461947  0.31801019     0.13000
H3817       H  0.97680523  0.85364437  0.29200749     0.12100
H3818       H  0.93255239  0.78471018  0.32056757     0.09100
H3819       H  0.94866172  0.76611708  0.29182424     0.12400
H3820       H  0.98151783  0.82168861  0.27361554     0.14300
C3821       C  0.71095737  0.72782749  0.46462363    -0.01200
C3822       C  0.71984974  0.71479796  0.44945944    -0.09300
C3823       C  0.70816969  0.69887027  0.44017856    -0.18100
C3824       C  0.68692814  0.69583616  0.44542881     0.04300
C3825       C  0.67780116  0.70955443  0.46032661     0.18500
C3826       C  0.68996763  0.72495651  0.47015386    -0.19500
C3827       C  0.65646566  0.70816645  0.46488823    -0.20800
C3828       C  0.64384160  0.69392838  0.45437390    -0.19300
C3829       C  0.65239949  0.68014046  0.43967642     0.19900
C3830       C  0.67419662  0.68029143  0.43575214     0.02000
C3831       C  0.68233320  0.66474584  0.42244807    -0.14100
C3832       C  0.66919036  0.65107013  0.41176834    -0.11800
C3833       C  0.64726175  0.65287684  0.41309265     0.01500
C3834       C  0.63924875  0.66652898  0.42849407    -0.23900
H3835       H  0.73598493  0.71684179  0.44486296     0.09500
H3836       H  0.71596793  0.68963258  0.42842389     0.13100
H3837       H  0.68287464  0.73526607  0.48160209     0.11800
H3838       H  0.64936499  0.71861155  0.47618908     0.13000
H3839       H  0.62726483  0.69375019  0.45771190     0.12100
H3840       H  0.69888043  0.66260622  0.42021122     0.09100
H3841       H  0.67666384  0.63926239  0.40234069     0.12400
H3842       H  0.62252104  0.66732524  0.43091877     0.14300
C3843       C  0.78301334  0.72367178  0.53682230    -0.01200
C3844       C  0.77745508  0.71817162  0.55721628    -0.09300
C3845       C  0.78840601  0.70258971  0.56784941    -0.18100
C3846       C  0.80518640  0.69186865  0.55820744     0.04300
C3847       C  0.80943076  0.69619256  0.53684720     0.18500
C3848       C  0.79863180  0.71225069  0.52650431    -0.19500
C3849       C  0.82477164  0.68482400  0.52614906    -0.20800
C3850       C  0.83643049  0.66962469  0.53643200    -0.19300
C3851       C  0.83360074  0.66600784  0.55785302     0.19900
C3852       C  0.81809999  0.67728812  0.56906718     0.02000
C3853       C  0.81701616  0.67446379  0.59089637    -0.14100
C3854       C  0.83067017  0.66099216  0.60112075    -0.11800
C3855       C  0.84544436  0.64892990  0.59010502     0.01500
C3856       C  0.84678014  0.65180662  0.56826250    -0.23900
H3857       H  0.76520264  0.72659532  0.56531780     0.09500
H3858       H  0.78342417  0.69931057  0.58360998     0.13100
H3859       H  0.80261508  0.71612921  0.51048613     0.11800
H3860       H  0.82786473  0.68779849  0.50975552     0.13000
H3861       H  0.84823526  0.66115022  0.52772552     0.12100
H3862       H  0.80641215  0.68317639  0.60066971     0.09100
H3863       H  0.82980016  0.66000318  0.61801874     0.12400
H3864       H  0.85879473  0.64403101  0.55929539     0.14300
C3865       C  0.69235369  0.80956847  0.54794048    -0.01200
C3866       C  0.67768011  0.79618732  0.55707458    -0.09300
C3867       C  0.66129946  0.80419864  0.56930475    -0.18100
C3868       C  0.65918186  0.82595639  0.57287055     0.04300
C3869       C  0.67404030  0.83935996  0.56338060     0.18500
C3870       C  0.69018057  0.83115533  0.55109035    -0.19500
C3871       C  0.67297811  0.86096189  0.56640706    -0.20800
C3872       C  0.65775442  0.86961404  0.57917285    -0.19300
C3873       C  0.64312735  0.85689883  0.58913607     0.19900
C3874       C  0.64329508  0.83496246  0.58586351     0.02000
C3875       C  0.62762448  0.82313220  0.59584558    -0.14100
C3876       C  0.61338394  0.83250364  0.60959980    -0.11800
C3877       C  0.61445234  0.85399575  0.61437433     0.01500
C3878       C  0.62864563  0.86609049  0.60277479    -0.23900
H3879       H  0.67884151  0.77948019  0.55476585     0.09500
H3880       H  0.65070440  0.79299412  0.57598262     0.13100
H3881       H  0.70132694  0.84179575  0.54413404     0.11800
H3882       H  0.68423999  0.87124177  0.55911381     0.13000
H3883       H  0.65761938  0.88637147  0.58151573     0.12100
H3884       H  0.62599729  0.80657712  0.59333871     0.09100
H3885       H  0.60153477  0.82262298  0.61633494     0.12400
H3886       H  0.62906563  0.88283140  0.60522577     0.14300
C3887       C  0.88472537  0.85732074  0.38509430    -0.01200
C3888       C  0.88427689  0.86049099  0.40693286    -0.09300
C3889       C  0.87065088  0.84939950  0.41979767    -0.18100
C3890       C  0.85605643  0.83523562  0.41138738     0.04300
C3891       C  0.85487388  0.83347140  0.38932246     0.18500
C3892       C  0.86914168  0.84421749  0.37654906    -0.19500
C3893       C  0.83930911  0.82114901  0.38015206    -0.20800
C3894       C  0.82479062  0.81068172  0.39251488    -0.19300
C3895       C  0.82597970  0.81158715  0.41437901     0.19900
C3896       C  0.84207374  0.82338405  0.42408422     0.02000
C3897       C  0.84365453  0.82263274  0.44609120    -0.14100
C3898       C  0.82916975  0.81164867  0.45801971    -0.11800
C3899       C  0.81243680  0.80113739  0.44858071     0.01500
C3900       C  0.81111823  0.80092909  0.42664463    -0.23900
H3901       H  0.89398909  0.87189070  0.41454525     0.09500
H3902       H  0.87137814  0.85285526  0.43629170     0.13100
H3903       H  0.86821368  0.84236613  0.35971147     0.11800
H3904       H  0.83814125  0.81986973  0.36328690     0.13000
H3905       H  0.81269419  0.80162983  0.38492157     0.12100
H3906       H  0.85604717  0.83024920  0.45454659     0.09100
H3907       H  0.83076012  0.81201736  0.47488647     0.12400
H3908       H  0.79842565  0.79266040  0.41911782     0.14300
C3909       C  0.79710042  0.83244105  0.54912227    -0.01200
C3910       C  0.81808648  0.82687424  0.55192189    -0.09300
C3911       C  0.83037027  0.83644652  0.56716461    -0.18100
C3912       C  0.82201182  0.85190010  0.58054243     0.04300
C3913       C  0.80057984  0.85726921  0.57800876     0.18500
C3914       C  0.78843249  0.84776285  0.56221757    -0.19500
C3915       C  0.79141652  0.87201685  0.59133567    -0.20800
C3916       C  0.80314210  0.88182102  0.60682166    -0.19300
C3917       C  0.82446878  0.87746686  0.60915228     0.19900
C3918       C  0.83418191  0.86235431  0.59616523     0.02000
C3919       C  0.85571802  0.85863342  0.59919721    -0.14100
C3920       C  0.86735062  0.87051646  0.61334152    -0.11800
C3921       C  0.85818781  0.88666773  0.62524586     0.01500
C3922       C  0.83620652  0.88868749  0.62399526    -0.23900
H3923       H  0.82517528  0.81501384  0.54211971     0.09500
H3924       H  0.84633825  0.83126737  0.56813787     0.13100
H3925       H  0.77212135  0.85192122  0.56045570     0.11800
H3926       H  0.77507273  0.87607509  0.58971748     0.13000
H3927       H  0.79556812  0.89331058  0.61671073     0.12100
H3928       H  0.86426366  0.84713655  0.59035065     0.09100
H3929       H  0.88401022  0.86778057  0.61416735     0.12400
H3930       H  0.82783903  0.89938148  0.63395883     0.14300
C3931       C  0.71283398  0.83492877  0.45033252    -0.01200
C3932       C  0.69915474  0.82397088  0.43718942    -0.09300
C3933       C  0.68516267  0.83443357  0.42426146    -0.18100
C3934       C  0.68438811  0.85642633  0.42389748     0.04300
C3935       C  0.69857699  0.86756839  0.43687871     0.18500
C3936       C  0.71241675  0.85678513  0.45016897    -0.19500
C3937       C  0.69892220  0.88938757  0.43637239    -0.20800
C3938       C  0.68565053  0.90033483  0.42308089    -0.19300
C3939       C  0.67145313  0.88975273  0.41020267     0.19900
C3940       C  0.67029337  0.86773454  0.41082292     0.02000
C3941       C  0.65450481  0.85807260  0.39895640    -0.14100
C3942       C  0.64154702  0.86966750  0.38582003    -0.11800
C3943       C  0.64415337  0.89142375  0.38294853     0.01500
C3944       C  0.65824645  0.90111325  0.39690151    -0.23900
H3945       H  0.69908337  0.80706301  0.43699115     0.09500
H3946       H  0.67542297  0.82484052  0.41444949     0.13100
H3947       H  0.72305187  0.86539238  0.46013166     0.11800
H3948       H  0.70969225  0.89804117  0.44613837     0.13000
H3949       H  0.68651800  0.91724360  0.42285489     0.12100
H3950       H  0.65127277  0.84159088  0.40001194     0.09100
H3951       H  0.62883426  0.86122725  0.37871566     0.12400
H3952       H  0.65866415  0.91810393  0.39846383     0.14300
C3953       C  0.64436676  0.91883426  0.35346957    -0.01200
C3954       C  0.65599969  0.93541122  0.36213280    -0.09300
C3955       C  0.67107200  0.94616355  0.35077235    -0.18100
C3956       C  0.67502826  0.94132970  0.32964988     0.04300
C3957       C  0.66181081  0.92661716  0.31984990     0.18500
C3958       C  0.64660514  0.91593652  0.33153425    -0.19500
C3959       C  0.66395905  0.92247666  0.29840952    -0.20800
C3960       C  0.67930861  0.93236881  0.28664677    -0.19300
C3961       C  0.69316129  0.94635887  0.29609276     0.19900
C3962       C  0.69126556  0.95092932  0.31779638     0.02000
C3963       C  0.70605019  0.96447761  0.32685748    -0.14100
C3964       C  0.72182348  0.97333872  0.31485641    -0.11800
C3965       C  0.72357824  0.96909498  0.29337082     0.01500
C3966       C  0.70908653  0.95559244  0.28406025    -0.23900
H3967       H  0.65290913  0.94118498  0.37783490     0.09500
H3968       H  0.67907502  0.95855459  0.35887443     0.13100
H3969       H  0.63675096  0.90533945  0.32298209     0.11800
H3970       H  0.65377434  0.91139925  0.29068972     0.13000
H3971       H  0.68058127  0.92876655  0.27012564     0.12100
H3972       H  0.70615508  0.96818738  0.34330743     0.09100
H3973       H  0.73283169  0.98354149  0.32262632     0.12400
H3974       H  0.71035818  0.95201705  0.26752810     0.14300
C3975       C  0.72145906  0.04150460  0.21560255    -0.01200
C3976       C  0.71620804  0.06242293  0.21934601    -0.09300
C3977       C  0.70116535  0.07255711  0.20723385    -0.18100
C3978       C  0.69088685  0.06212188  0.19068247     0.04300
C3979       C  0.69552917  0.04065630  0.18750784     0.18500
C3980       C  0.71069839  0.03060453  0.19987300    -0.19500
C3981       C  0.68520636  0.02943994  0.17181047    -0.20800
C3982       C  0.67039650  0.03911066  0.15914569    -0.19300
C3983       C  0.66583753  0.06037285  0.16152627     0.19900
C3984       C  0.67628201  0.07223181  0.17711622     0.02000
C3985       C  0.67232536  0.09387034  0.17788006    -0.14100
C3986       C  0.65842727  0.10323151  0.16400357    -0.11800
C3987       C  0.64700507  0.09151204  0.14927353     0.01500
C3988       C  0.65131416  0.06993292  0.14799615    -0.23900
H3989       H  0.72392001  0.07115302  0.23162201     0.09500
H3990       H  0.69791397  0.08856740  0.21126110     0.13100
H3991       H  0.71443108  0.01435905  0.19690539     0.11800
H3992       H  0.68860951  0.01305276  0.16930197     0.13000
H3993       H  0.66268495  0.02994839  0.14717521     0.12100
H3994       H  0.68025976  0.10416977  0.18855766     0.09100
H3995       H  0.65656242  0.12002563  0.16472592     0.12400
H3996       H  0.64426470  0.06051955  0.13588544     0.14300
C3997       C  0.85416267  0.12094627  0.38781852    -0.01200
C3998       C  0.85778831  0.09928727  0.38661296    -0.09300
C3999       C  0.84633929  0.08661179  0.37307388    -0.18100
C4000       C  0.83138637  0.09513033  0.35928040     0.04300
C4001       C  0.82931942  0.11712582  0.35860224     0.18500
C4002       C  0.84051149  0.12969434  0.37276419    -0.19500
C4003       C  0.81625011  0.12639517  0.34364600    -0.20800
C4004       C  0.80553061  0.11418969  0.32909451    -0.19300
C4005       C  0.80685062  0.09236429  0.32974903     0.19900
C4006       C  0.81915867  0.08259888  0.34546557     0.02000
C4007       C  0.81859399  0.06066267  0.34686356    -0.14100
C4008       C  0.80766666  0.04881566  0.33227709    -0.11800
C4009       C  0.79698163  0.05825042  0.31558991     0.01500
C4010       C  0.79621888  0.08017097  0.31470678    -0.23900
H4011       H  0.86978665  0.09179080  0.39576772     0.09500
H4012       H  0.85013228  0.07020768  0.37316756     0.13100
H4013       H  0.83836565  0.14646673  0.37231631     0.11800
H4014       H  0.81466272  0.14321794  0.34290323     0.13000
H4015       H  0.79601442  0.12186116  0.31737817     0.12100
H4016       H  0.82636812  0.05220295  0.35919173     0.09100
H4017       H  0.80827652  0.03198798  0.33375353     0.12400
H4018       H  0.78769442  0.08772626  0.30217109     0.14300
C4019       C  0.79933599  0.95791849  0.19267492    -0.01200
C4020       C  0.79154310  0.93767020  0.19004513    -0.09300
C4021       C  0.80028006  0.92415615  0.17504042    -0.18100
C4022       C  0.81702699  0.93064726  0.16207730     0.04300
C4023       C  0.82374051  0.95168781  0.16390843     0.18500
C4024       C  0.81505770  0.96489890  0.17913523    -0.19500
C4025       C  0.83951410  0.95935644  0.15091190    -0.20800
C4026       C  0.84907018  0.94649281  0.13626456    -0.19300
C4027       C  0.84345955  0.92547058  0.13452904     0.19900
C4028       C  0.82755793  0.91713087  0.14755342     0.02000
C4029       C  0.82366072  0.89549729  0.14610347    -0.14100
C4030       C  0.83478816  0.88288701  0.13205196    -0.11800
C4031       C  0.84955501  0.89129842  0.11801515     0.01500
C4032       C  0.85412975  0.91272598  0.12011327    -0.23900
H4033       H  0.77932949  0.93195578  0.20023401     0.09500
H4034       H  0.79378407  0.90867824  0.17403482     0.13100
H4035       H  0.82095794  0.98066895  0.18081390     0.11800
H4036       H  0.84459065  0.97543485  0.15215445     0.13000
H4037       H  0.86124303  0.95297010  0.12646977     0.12100
H4038       H  0.81249772  0.88779337  0.15605557     0.09100
H4039       H  0.83163689  0.86628601  0.13190625     0.12400
H4040       H  0.86667710  0.91965952  0.11127328     0.14300
C4041       C  0.83207000  0.95762126  0.29398252    -0.01200
C4042       C  0.84542772  0.94364854  0.28373042    -0.09300
C4043       C  0.85540309  0.92763388  0.29487781    -0.18100
C4044       C  0.85245342  0.92535934  0.31674605     0.04300
C4045       C  0.83925094  0.93997666  0.32700279     0.18500
C4046       C  0.82913589  0.95563660  0.31561026    -0.19500
C4047       C  0.83629023  0.93906043  0.34865782    -0.20800
C4048       C  0.84670337  0.92426815  0.36056265    -0.19300
C4049       C  0.85995470  0.90974356  0.35103809     0.19900
C4050       C  0.86252963  0.90958772  0.32897297     0.02000
C4051       C  0.87509207  0.89368593  0.32023581    -0.14100
C4052       C  0.88607958  0.87972819  0.33298752    -0.11800
C4053       C  0.88549440  0.88148369  0.35499762     0.01500
C4054       C  0.87115420  0.89579724  0.36363588    -0.23900
H4055       H  0.84778902  0.94480577  0.26699517     0.09500
H4056       H  0.86550012  0.91743240  0.28604687     0.13100
H4057       H  0.81894655  0.96649862  0.32372326     0.11800
H4058       H  0.82618160  0.95015931  0.35651573     0.13000
H4059       H  0.84452490  0.92431896  0.37737859     0.12100
H4060       H  0.87673772  0.89167643  0.30356829     0.09100
H4061       H  0.89524694  0.86788092  0.32524459     0.12400
H4062       H  0.86971006  0.89690984  0.38050499     0.14300
C4063       C  0.88665126  0.12953151  0.15294419    -0.01200
C4064       C  0.86539798  0.13334329  0.15703119    -0.09300
C4065       C  0.85433884  0.12122667  0.17125242    -0.18100
C4066       C  0.86404896  0.10462387  0.18204677     0.04300
C4067       C  0.88589855  0.10203667  0.17958901     0.18500
C4068       C  0.89708341  0.11516852  0.16603845    -0.19500
C4069       C  0.89627273  0.08578975  0.18994540    -0.20800
C4070       C  0.88521123  0.07150189  0.20202041    -0.19300
C4071       C  0.86355546  0.07332669  0.20433207     0.19900
C4072       C  0.85277319  0.09025468  0.19477413     0.02000
C4073       C  0.83103462  0.09176516  0.19788543    -0.14100
C4074       C  0.82038721  0.07690059  0.20949927    -0.11800
C4075       C  0.83083568  0.05985616  0.21843926     0.01500
C4076       C  0.85252673  0.05822219  0.21592032    -0.23900
H4077       H  0.85699865  0.14573337  0.14921925     0.09500
H4078       H  0.83806184  0.12501833  0.17299380     0.13100
H4079       H  0.91377041  0.11298343  0.16426108     0.11800
H4080       H  0.91296899  0.08373592  0.18817793     0.13000
H4081       H  0.89361882  0.05879273  0.20938849     0.12100
H4082       H  0.82166291  0.10414683  0.19144467     0.09100
H4083       H  0.80365832  0.07868689  0.21117218     0.12400
H4084       H  0.86081332  0.04523001  0.22293638     0.14300
C4085       C  0.04028768  0.29468488  0.22902820    -0.01200
C4086       C  0.03592622  0.28986396  0.20814102    -0.09300
C4087       C  0.04447525  0.30172844  0.19191328    -0.18100
C4088       C  0.05816267  0.31851603  0.19616937     0.04300
C4089       C  0.06318066  0.32267010  0.21746748     0.18500
C4090       C  0.05387534  0.31111761  0.23359934    -0.19500
C4091       C  0.07758208  0.33822187  0.22256357    -0.20800
C4092       C  0.08720800  0.34974585  0.20695073    -0.19300
C4093       C  0.08214055  0.34650444  0.18588990     0.19900
C4094       C  0.06731169  0.33113053  0.18014892     0.02000
C4095       C  0.06243324  0.32905933  0.15865868    -0.14100
C4096       C  0.07207361  0.34159452  0.14356687    -0.11800
C4097       C  0.08681985  0.35683366  0.14917380     0.01500
C4098       C  0.09206677  0.35854376  0.17057473    -0.23900
H4099       H  0.02542569  0.27717604  0.20437290     0.09500
H4100       H  0.04028459  0.29724172  0.17621477     0.13100
H4101       H  0.05746888  0.31467778  0.24979882     0.11800
H4102       H  0.08162758  0.34132419  0.23873380     0.13000
H4103       H  0.09851243  0.36149556  0.21141538     0.12100
H4104       H  0.05115777  0.31794041  0.15302158     0.09100
H4105       H  0.06812887  0.33923190  0.12726457     0.12400
H4106       H  0.10440990  0.36884962  0.17563723     0.14300
C4107       C  0.96592971  0.21668579  0.22542255    -0.01200
C4108       C  0.97747572  0.20257468  0.21321794    -0.09300
C4109       C  0.96797886  0.19111973  0.19721976    -0.18100
C4110       C  0.94645436  0.19338559  0.19287806     0.04300
C4111       C  0.93494847  0.20806155  0.20501519     0.18500
C4112       C  0.94470137  0.21948410  0.22100192    -0.19500
C4113       C  0.91363862  0.21104509  0.20139665    -0.20800
C4114       C  0.90330816  0.19935637  0.18635165    -0.19300
C4115       C  0.91404033  0.18444311  0.17449199     0.19900
C4116       C  0.93579584  0.18139788  0.17728585     0.02000
C4117       C  0.94569437  0.16605449  0.16480339    -0.14100
C4118       C  0.93433660  0.15385934  0.15064650    -0.11800
C4119       C  0.91267773  0.15666449  0.14805566     0.01500
C4120       C  0.90286757  0.17212944  0.16028941    -0.23900
H4121       H  0.99393484  0.20012815  0.21619926     0.09500
H4122       H  0.97786078  0.18048659  0.18868078     0.13100
H4123       H  0.93560721  0.23044421  0.23019822     0.11800
H4124       H  0.90480969  0.22228731  0.21049839     0.13000
H4125       H  0.88670842  0.20180341  0.18417896     0.12100
H4126       H  0.96212011  0.16266986  0.16603766     0.09100
H4127       H  0.94261651  0.14153666  0.14260807     0.12400
H4128       H  0.88610085  0.17412341  0.15918119     0.14300
C4129       C  0.12154479  0.12078292  0.34451088    -0.01200
C4130       C  0.10788389  0.11494600  0.32822879    -0.09300
C4131       C  0.09618740  0.12976477  0.31722887    -0.18100
C4132       C  0.09813589  0.15128363  0.32161772     0.04300
C4133       C  0.11352992  0.15737151  0.33638937     0.18500
C4134       C  0.12522853  0.14231366  0.34724396    -0.19500
C4135       C  0.11687138  0.17852051  0.34069808    -0.20800
C4136       C  0.10430568  0.19373544  0.33170213    -0.19300
C4137       C  0.08814886  0.18819222  0.31809322     0.19900
C4138       C  0.08517349  0.16696353  0.31228605     0.02000
C4139       C  0.06878790  0.16238401  0.29811699    -0.14100
C4140       C  0.05531204  0.17808845  0.29098117    -0.11800
C4141       C  0.05771322  0.19867873  0.29779688     0.01500
C4142       C  0.07440294  0.20370928  0.31094547    -0.23900
H4143       H  0.10561205  0.09858031  0.32463819     0.09500
H4144       H  0.08554105  0.12386672  0.30560371     0.13100
H4145       H  0.13725392  0.14771912  0.35774903     0.11800
H4146       H  0.12885838  0.18330657  0.35165142     0.13000
H4147       H  0.10686158  0.20992330  0.33590129     0.12100
H4148       H  0.06557844  0.14674839  0.29281520     0.09100
H4149       H  0.04233046  0.17395208  0.28095584     0.12400
H4150       H  0.07621792  0.21970287  0.31622451     0.14300
C4151       C  0.94843278  0.31544859  0.29860841    -0.01200
C4152       C  0.95652483  0.33432659  0.30609521    -0.09300
C4153       C  0.94358745  0.34932998  0.31506201    -0.18100
C4154       C  0.92190011  0.34598089  0.31701043     0.04300
C4155       C  0.91335954  0.32769115  0.30790132     0.18500
C4156       C  0.92665988  0.31247144  0.29901867    -0.19500
C4157       C  0.89168439  0.32465946  0.30812631    -0.20800
C4158       C  0.87843925  0.33935079  0.31741386    -0.19300
C4159       C  0.88659218  0.35699861  0.32748812     0.19900
C4160       C  0.90847756  0.36016948  0.32777038     0.02000
C4161       C  0.91623904  0.37673064  0.33985214    -0.14100
C4162       C  0.90294960  0.39009598  0.35058036    -0.11800
C4163       C  0.88097412  0.38848083  0.34917914     0.01500
C4164       C  0.87313576  0.37118535  0.33780229    -0.23900
H4165       H  0.97313335  0.33737851  0.30558861     0.09500
H4166       H  0.95105811  0.36347042  0.32025741     0.13100
H4167       H  0.92009542  0.29811603  0.29294314     0.11800
H4168       H  0.88492916  0.31087204  0.30103563     0.13000
H4169       H  0.86176543  0.33659903  0.31720460     0.12100
H4170       H  0.93270096  0.37917653  0.34225850     0.09100
H4171       H  0.91069472  0.40123022  0.36045580     0.12400
H4172       H  0.85644959  0.36847558  0.33744349     0.14300
C4173       C  0.87937477  0.14968425  0.38943411    -0.01200
C4174       C  0.87403095  0.17060033  0.38515875    -0.09300
C4175       C  0.88715566  0.18343726  0.37351709    -0.18100
C4176       C  0.90644050  0.17600440  0.36584026     0.04300
C4177       C  0.91143550  0.15467557  0.36922647     0.18500
C4178       C  0.89734513  0.14154791  0.37966341    -0.19500
C4179       C  0.93079974  0.14674817  0.36288487    -0.20800
C4180       C  0.94554358  0.15971594  0.35367343    -0.19300
C4181       C  0.94095114  0.18071551  0.34977144     0.19900
C4182       C  0.92108142  0.18902832  0.35525107     0.02000
C4183       C  0.91670392  0.20995993  0.34973539    -0.14100
C4184       C  0.93144070  0.22204847  0.33925914    -0.11800
C4185       C  0.95115327  0.21395448  0.33452399     0.01500
C4186       C  0.95595283  0.19337176  0.33999856    -0.23900
H4187       H  0.85955860  0.17730062  0.39072087     0.09500
H4188       H  0.88203270  0.19931748  0.37142460     0.13100
H4189       H  0.90119167  0.12519041  0.38171954     0.11800
H4190       H  0.93479790  0.13053246  0.36559909     0.13000
H4191       H  0.96056333  0.15321177  0.34935183     0.12100
H4192       H  0.90186115  0.21727860  0.35275940     0.09100
H4193       H  0.92741130  0.23785728  0.33478019     0.12400
H4194       H  0.97105671  0.18694850  0.33579766     0.14300
C4195       C  0.12156084  0.35875892  0.38947777    -0.01200
C4196       C  0.10133704  0.35725268  0.39808651    -0.09300
C4197       C  0.08674844  0.34309031  0.39027672    -0.18100
C4198       C  0.09173598  0.32967241  0.37348069     0.04300
C4199       C  0.11235807  0.33049074  0.36535120     0.18500
C4200       C  0.12709668  0.34424875  0.37387776    -0.19500
C4201       C  0.11805333  0.31798057  0.34833428    -0.20800
C4202       C  0.10342279  0.30533390  0.33857340    -0.19300
C4203       C  0.08291907  0.30440222  0.34600648     0.19900
C4204       C  0.07690408  0.31591687  0.36405089     0.02000
C4205       C  0.05618396  0.31348336  0.37145548    -0.14100
C4206       C  0.04175555  0.30120746  0.36053954    -0.11800
C4207       C  0.04757718  0.29118799  0.34202252     0.01500
C4208       C  0.06821510  0.29245430  0.33509404    -0.23900
H4209       H  0.09662385  0.36681158  0.41121568     0.09500
H4210       H  0.07156462  0.34328111  0.39750965     0.13100
H4211       H  0.14285586  0.34430804  0.36771958     0.11800
H4212       H  0.13376667  0.31849555  0.34208856     0.13000
H4213       H  0.10812680  0.29637508  0.32496817     0.12100
H4214       H  0.05059715  0.32109572  0.38541791     0.09100
H4215       H  0.02580750  0.30027650  0.36606640     0.12400
H4216       H  0.07267651  0.28450586  0.32077053     0.14300
C4217       C  0.77472639  0.54729271  0.21460195    -0.01200
C4218       C  0.78130195  0.56711312  0.22092456    -0.09300
C4219       C  0.79730034  0.57734780  0.21027676    -0.18100
C4220       C  0.80745846  0.56785722  0.19303530     0.04300
C4221       C  0.80133141  0.54733118  0.18732672     0.18500
C4222       C  0.78487534  0.53744011  0.19785380    -0.19500
C4223       C  0.81160735  0.53683193  0.17109804    -0.20800
C4224       C  0.82775112  0.54639033  0.16021379    -0.19300
C4225       C  0.83361038  0.56691070  0.16487176     0.19900
C4226       C  0.82336216  0.57800593  0.18118844     0.02000
C4227       C  0.82874315  0.59909395  0.18427848    -0.14100
C4228       C  0.84333687  0.60881018  0.17149518    -0.11800
C4229       C  0.85411805  0.59783859  0.15571438     0.01500
C4230       C  0.84901327  0.57667228  0.15264595    -0.23900
H4231       H  0.77375126  0.57492919  0.23392570     0.09500
H4232       H  0.80149508  0.59256498  0.21607103     0.13100
H4233       H  0.78008139  0.52190901  0.19313767     0.11800
H4234       H  0.80713242  0.52110105  0.16679270     0.13000
H4235       H  0.83536138  0.53783936  0.14771123     0.12100
H4236       H  0.82119497  0.60885159  0.19574924     0.09100
H4237       H  0.84588457  0.62538846  0.17359584     0.12400
H4238       H  0.85578794  0.56804482  0.13977058     0.14300
C4239       C  0.85293372  0.41796622  0.34730236    -0.01200
C4240       C  0.84351108  0.43599258  0.35596349    -0.09300
C4241       C  0.83036382  0.44882688  0.34432304    -0.18100
C4242       C  0.82523189  0.44389927  0.32347957     0.04300
C4243       C  0.83443453  0.42579096  0.31453494     0.18500
C4244       C  0.84864904  0.41358265  0.32608976    -0.19500
C4245       C  0.82870727  0.41944359  0.29435726    -0.20800
C4246       C  0.81329216  0.43011342  0.28334373    -0.19300
C4247       C  0.80386715  0.44793483  0.29184479     0.19900
C4248       C  0.81042675  0.45566293  0.31160903     0.02000
C4249       C  0.80160477  0.47464013  0.31875744    -0.14100
C4250       C  0.78584359  0.48465010  0.30746258    -0.11800
C4251       C  0.77821394  0.47600726  0.28885891     0.01500
C4252       C  0.78763886  0.45788644  0.28088865    -0.23900
H4253       H  0.84573480  0.43989855  0.37229287     0.09500
H4254       H  0.82357208  0.46189942  0.35248988     0.13100
H4255       H  0.85552591  0.40028117  0.31842933     0.11800
H4256       H  0.83559271  0.40563515  0.28736910     0.13000
H4257       H  0.80862368  0.42431006  0.26811891     0.12100
H4258       H  0.80656669  0.48213577  0.33301098     0.09100
H4259       H  0.77908991  0.49885742  0.31371849     0.12400
H4260       H  0.78221428  0.45142139  0.26618117     0.14300
C4261       C  0.70210671  0.45281595  0.19467994    -0.01200
C4262       C  0.70386588  0.43108099  0.19671849    -0.09300
C4263       C  0.69513163  0.41767270  0.18164001    -0.18100
C4264       C  0.68387419  0.42567898  0.16428530     0.04300
C4265       C  0.68201209  0.44771747  0.16260864     0.18500
C4266       C  0.69134472  0.46086636  0.17738546    -0.19500
C4267       C  0.67040201  0.45668224  0.14642946    -0.20800
C4268       C  0.66031100  0.44424800  0.13188239    -0.19300
C4269       C  0.66201238  0.42250754  0.13276334     0.19900
C4270       C  0.67403399  0.41283493  0.14873078     0.02000
C4271       C  0.67540493  0.39083328  0.14842822    -0.14100
C4272       C  0.66535372  0.37909962  0.13288030    -0.11800
C4273       C  0.65348922  0.38863047  0.11686266     0.01500
C4274       C  0.65151264  0.41053024  0.11769231    -0.23900
H4275       H  0.71193486  0.42442751  0.21002558     0.09500
H4276       H  0.69702946  0.40114789  0.18417835     0.13100
H4277       H  0.68947683  0.47761425  0.17576416     0.11800
H4278       H  0.66884276  0.47348418  0.14518326     0.13000
H4279       H  0.65122086  0.45174217  0.11970843     0.12100
H4280       H  0.68421426  0.38227403  0.15995565     0.09100
H4281       H  0.66673842  0.36225889  0.13341563     0.12400
H4282       H  0.64138050  0.41873172  0.10704783     0.14300
C4283       C  0.69783706  0.55999349  0.31082634    -0.01200
C4284       C  0.70318155  0.58115573  0.31126152    -0.09300
C4285       C  0.69381984  0.59470475  0.32579646    -0.18100
C4286       C  0.67891338  0.58730039  0.34040884     0.04300
C4287       C  0.67487410  0.56549862  0.34073389     0.18500
C4288       C  0.68413279  0.55223205  0.32594846    -0.19500
C4289       C  0.66107635  0.55706484  0.35538068    -0.20800
C4290       C  0.65069405  0.56988246  0.36946425    -0.19300
C4291       C  0.65355114  0.59151796  0.36903643     0.19900
C4292       C  0.66760717  0.60060320  0.35448125     0.02000
C4293       C  0.66903686  0.62258304  0.35415273    -0.14100
C4294       C  0.65740794  0.63487641  0.36803378    -0.11800
C4295       C  0.64429765  0.62591819  0.38333551     0.01500
C4296       C  0.64208085  0.60403101  0.38297686    -0.23900
H4297       H  0.71379866  0.58741660  0.29968888     0.09500
H4298       H  0.69828974  0.61089593  0.32505362     0.13100
H4299       H  0.68016789  0.53577609  0.32577232     0.11800
H4300       H  0.65812551  0.54042038  0.35581782     0.13000
H4301       H  0.64004073  0.56282365  0.38054958     0.12100
H4302       H  0.67877211  0.63073549  0.34311987     0.09100
H4303       H  0.65897440  0.65168100  0.36714333     0.12400
H4304       H  0.63110841  0.59633493  0.39316357     0.14300
C4305       C  0.61117480  0.62971218  0.14546306    -0.01200
C4306       C  0.62698223  0.61745975  0.13618402    -0.09300
C4307       C  0.63856797  0.60307674  0.14771136    -0.18100
C4308       C  0.63480511  0.60000705  0.16924907     0.04300
C4309       C  0.61955859  0.61282654  0.17900055     0.18500
C4310       C  0.60856266  0.62792768  0.16735923    -0.19500
C4311       C  0.61496041  0.61014247  0.20026745    -0.20800
C4312       C  0.62497154  0.59478035  0.21197579    -0.19300
C4313       C  0.64017366  0.58195511  0.20285895     0.19900
C4314       C  0.64546786  0.58455930  0.18139546     0.02000
C4315       C  0.66124502  0.57159345  0.17302415    -0.14100
C4316       C  0.67141762  0.55687520  0.18540906    -0.11800
C4317       C  0.66623533  0.55427570  0.20655691     0.01500
C4318       C  0.65035887  0.56673926  0.21514098    -0.23900
H4319       H  0.62978261  0.61836588  0.11950184     0.09500
H4320       H  0.64990788  0.59414521  0.13906053     0.13100
H4321       H  0.59759934  0.63767639  0.17564101     0.11800
H4322       H  0.60327022  0.61978134  0.20784271     0.13000
H4323       H  0.62086274  0.59299561  0.22831990     0.12100
H4324       H  0.66635715  0.57258811  0.15701310     0.09100
H4325       H  0.68360020  0.54750622  0.17830355     0.12400
H4326       H  0.64634804  0.56503877  0.23152502     0.14300
C4327       C  0.66596865  0.46136633  0.29270966    -0.01200
C4328       C  0.64943547  0.45047160  0.28367598    -0.09300
C4329       C  0.63855835  0.43552070  0.29518081    -0.18100
C4330       C  0.64379539  0.43130818  0.31628775     0.04300
C4331       C  0.65976753  0.44348137  0.32570986     0.18500
C4332       C  0.67098832  0.45800708  0.31374774    -0.19500
C4333       C  0.66455715  0.44091554  0.34692086    -0.20800
C4334       C  0.65391998  0.42633571  0.35896800    -0.19300
C4335       C  0.63888436  0.41336065  0.34987773     0.19900
C4336       C  0.63386198  0.41543030  0.32834652     0.02000
C4337       C  0.61942982  0.40124540  0.31971109    -0.14100
C4338       C  0.61066400  0.38544604  0.33179465    -0.11800
C4339       C  0.61582702  0.38300948  0.35311031     0.01500
C4340       C  0.62917352  0.39800245  0.36212096    -0.23900
H4341       H  0.64541429  0.45299818  0.26740874     0.09500
H4342       H  0.62612045  0.42757710  0.28712845     0.13100
H4343       H  0.68373733  0.46666444  0.32074411     0.11800
H4344       H  0.67655075  0.45030850  0.35426141     0.13000
H4345       H  0.65790731  0.42478975  0.37537098     0.12100
H4346       H  0.61484188  0.40167078  0.30350374     0.09100
H4347       H  0.59935652  0.37549810  0.32421902     0.12400
H4348       H  0.63266114  0.39709576  0.37869492     0.14300
C4349       C  0.34377916  0.35781703  0.58497955    -0.01200
C4350       C  0.34489418  0.35598848  0.56303058    -0.09300
C4351       C  0.33211491  0.34208305  0.55209463    -0.18100
C4352       C  0.31769999  0.32914960  0.56262357     0.04300
C4353       C  0.31596817  0.33141323  0.58463267     0.18500
C4354       C  0.32916238  0.34515399  0.59549095    -0.19500
C4355       C  0.30138941  0.31958680  0.59579331    -0.20800
C4356       C  0.28883720  0.30508857  0.58561130    -0.19300
C4357       C  0.29094614  0.30162105  0.56409577     0.19900
C4358       C  0.30540892  0.31362553  0.55225337     0.02000
C4359       C  0.30759115  0.30889429  0.53074985    -0.14100
C4360       C  0.29658889  0.29241846  0.52168014    -0.11800
C4361       C  0.28255899  0.28052201  0.53345047     0.01500
C4362       C  0.27931900  0.28559819  0.55451568    -0.23900
H4363       H  0.35626423  0.36454710  0.55403037     0.09500
H4364       H  0.33411490  0.34164158  0.53536748     0.13100
H4365       H  0.32828351  0.34588744  0.61241866     0.11800
H4366       H  0.29981312  0.32142389  0.61257641     0.13000
H4367       H  0.27786623  0.29604650  0.59475814     0.12100
H4368       H  0.31824157  0.31710811  0.52067466     0.09100
H4369       H  0.29923246  0.28878922  0.50533186     0.12400
H4370       H  0.26863015  0.27628223  0.56374050     0.14300
C4371       C  0.15242951  0.35946850  0.41148200    -0.01200
C4372       C  0.14447649  0.35026979  0.42984815    -0.09300
C4373       C  0.15558431  0.33503777  0.44082657    -0.18100
C4374       C  0.17478132  0.32728375  0.43325173     0.04300
C4375       C  0.18231642  0.33543373  0.41405335     0.18500
C4376       C  0.17133479  0.35130374  0.40355870    -0.19500
C4377       C  0.20041897  0.32715913  0.40496852    -0.20800
C4378       C  0.21106410  0.31076232  0.41441860    -0.19300
C4379       C  0.20420982  0.30256659  0.43348643     0.19900
C4380       C  0.18626413  0.31105054  0.44347341     0.02000
C4381       C  0.18063669  0.30289313  0.46322836    -0.14100
C4382       C  0.19195699  0.28657712  0.47229941    -0.11800
C4383       C  0.20911237  0.27767487  0.46197259     0.01500
C4384       C  0.21520335  0.28587358  0.44259648    -0.23900
H4385       H  0.12918069  0.35459959  0.43559830     0.09500
H4386       H  0.14824507  0.32894225  0.45469390     0.13100
H4387       H  0.17708487  0.35627119  0.38846583     0.11800
H4388       H  0.20618930  0.33315843  0.39022118     0.13000
H4389       H  0.22480770  0.30448374  0.40677246     0.12100
H4390       H  0.16771216  0.30895830  0.47216229     0.09100
H4391       H  0.18703093  0.28069616  0.48738676     0.12400
H4392       H  0.22867987  0.27937327  0.43464559     0.14300
C4393       C  0.30776223  0.20634892  0.44065955    -0.01200
C4394       C  0.32887627  0.21071007  0.44448745    -0.09300
C4395       C  0.34465202  0.20207061  0.43195568    -0.18100
C4396       C  0.33985690  0.18817660  0.41541526     0.04300
C4397       C  0.31840921  0.18390828  0.41155003     0.18500
C4398       C  0.30269304  0.19333504  0.42376308    -0.19500
C4399       C  0.31274533  0.16956195  0.39605892    -0.20800
C4400       C  0.32788652  0.15880543  0.38479069    -0.19300
C4401       C  0.34913367  0.16260777  0.38816675     0.19900
C4402       C  0.35546724  0.17777189  0.40305794     0.02000
C4403       C  0.37711322  0.18148330  0.40512010    -0.14100
C4404       C  0.39172466  0.17049100  0.39302113    -0.11800
C4405       C  0.38559632  0.15518997  0.37837853     0.01500
C4406       C  0.36400210  0.15105187  0.37679688    -0.23900
H4407       H  0.33326546  0.22060050  0.45751078     0.09500
H4408       H  0.36048602  0.20594715  0.43606955     0.13100
H4409       H  0.28647192  0.18951719  0.42085986     0.11800
H4410       H  0.29645868  0.16618813  0.39302478     0.13000
H4411       H  0.32291027  0.14742990  0.37327074     0.12100
H4412       H  0.38323114  0.19292174  0.41585254     0.09100
H4413       H  0.40813646  0.17387155  0.39518633     0.12400
H4414       H  0.35831600  0.13843774  0.36721108     0.14300
C4415       C  0.19032837  0.19665719  0.54605595    -0.01200
C4416       C  0.18660820  0.17508617  0.54660628    -0.09300
C4417       C  0.17130322  0.16660356  0.55936794    -0.18100
C4418       C  0.15890680  0.17936283  0.57238805     0.04300
C4419       C  0.16190037  0.20132825  0.57131925     0.18500
C4420       C  0.17759209  0.20981063  0.55825411    -0.19500
C4421       C  0.14935912  0.21454160  0.58350924    -0.20800
C4422       C  0.13438213  0.20636398  0.59708927    -0.19300
C4423       C  0.13179240  0.18472682  0.59916740     0.19900
C4424       C  0.14395366  0.17098796  0.58667746     0.02000
C4425       C  0.14106244  0.14936443  0.58940020    -0.14100
C4426       C  0.12763998  0.14170708  0.60458584    -0.11800
C4427       C  0.11611762  0.15502251  0.61784035     0.01500
C4428       C  0.11754770  0.17672401  0.61403337    -0.23900
H4429       H  0.19575691  0.16440448  0.53717318     0.09500
H4430       H  0.16971458  0.14990412  0.55864490     0.13100
H4431       H  0.18002065  0.22653640  0.55779081     0.11800
H4432       H  0.15128305  0.23131699  0.58269640     0.13000
H4433       H  0.12514527  0.21704575  0.60644980     0.12100
H4434       H  0.14942348  0.13776715  0.58053815     0.09100
H4435       H  0.12682887  0.12494809  0.60648972     0.12400
H4436       H  0.10805166  0.18762693  0.62274198     0.14300
C4437       C  0.29445524  0.17100474  0.54365039    -0.01200
C4438       C  0.28480158  0.15492294  0.55485178    -0.09300
C4439       C  0.29540723  0.14443097  0.57077983    -0.18100
C4440       C  0.31625159  0.14956493  0.57591703     0.04300
C4441       C  0.32623346  0.16534534  0.56395530     0.18500
C4442       C  0.31524591  0.17603848  0.54824112    -0.19500
C4443       C  0.34713061  0.17038705  0.56775665    -0.20800
C4444       C  0.35839541  0.16002274  0.58316958    -0.19300
C4445       C  0.34885609  0.14483193  0.59561227     0.19900
C4446       C  0.32757754  0.13961998  0.59241409     0.02000
C4447       C  0.31856273  0.12476591  0.60593664    -0.14100
C4448       C  0.33006019  0.11571742  0.62210270    -0.11800
C4449       C  0.35113331  0.12102799  0.62562021     0.01500
C4450       C  0.36048933  0.13496469  0.61138418    -0.23900
H4451       H  0.26876579  0.15069897  0.55161449     0.09500
H4452       H  0.28686949  0.13232660  0.57869984     0.13100
H4453       H  0.32295095  0.18831428  0.53952393     0.11800
H4454       H  0.35487143  0.18233241  0.55863628     0.13000
H4455       H  0.37459886  0.16417738  0.58561331     0.12100
H4456       H  0.30256191  0.11984891  0.60454101     0.09100
H4457       H  0.32229968  0.10392487  0.63129107     0.12400
H4458       H  0.37693815  0.13854680  0.61302773     0.14300
C4459       C  0.21009658  0.16463702  0.45012741    -0.01200
C4460       C  0.21904981  0.14822096  0.43887703    -0.09300
C4461       C  0.20698098  0.13637731  0.42505378    -0.18100
C4462       C  0.18542320  0.14055797  0.42230322     0.04300
C4463       C  0.17621598  0.15635032  0.43494274     0.18500
C4464       C  0.18864659  0.16842258  0.44841182    -0.19500
C4465       C  0.15475839  0.16031165  0.43370242    -0.20800
C4466       C  0.14232348  0.14944601  0.41957984    -0.19300
C4467       C  0.15114909  0.13481515  0.40590715     0.19900
C4468       C  0.17278437  0.13008419  0.40714518     0.02000
C4469       C  0.18095361  0.11558941  0.39269302    -0.14100
C4470       C  0.16852047  0.10711577  0.37695231    -0.11800
C4471       C  0.14725406  0.11259858  0.37483121     0.01500
C4472       C  0.13856997  0.12544409  0.39051320    -0.23900
H4473       H  0.23560389  0.14503316  0.44022523     0.09500
H4474       H  0.21501703  0.12420612  0.41663763     0.13100
H4475       H  0.18169424  0.18099833  0.45741870     0.11800
H4476       H  0.14758152  0.17208757  0.44354955     0.13000
H4477       H  0.12581463  0.15307126  0.41882639     0.12100
H4478       H  0.19707554  0.11080388  0.39278915     0.09100
H4479       H  0.17592275  0.09598584  0.36662926     0.12400
H4480       H  0.12203927  0.12904782  0.38996935     0.14300
C4481       C  0.41649235  0.15672274  0.35222914    -0.01200
C4482       C  0.43301731  0.14764945  0.34082065    -0.09300
C4483       C  0.44497569  0.15919293  0.32677048    -0.18100
C4484       C  0.44055167  0.18041199  0.32286874     0.04300
C4485       C  0.42350553  0.18959007  0.33372773     0.18500
C4486       C  0.41181274  0.17787661  0.34818180    -0.19500
C4487       C  0.41777734  0.21029190  0.32962696    -0.20800
C4488       C  0.42820149  0.22186500  0.31450223    -0.19300
C4489       C  0.44494298  0.21320915  0.30341142     0.19900
C4490       C  0.45182778  0.19258928  0.30792251     0.02000
C4491       C  0.46955707  0.18502398  0.29709736    -0.14100
C4492       C  0.47929236  0.19701066  0.28170004    -0.11800
C4493       C  0.47161871  0.21679307  0.27639020     0.01500
C4494       C  0.45463880  0.22494295  0.28757675    -0.23900
H4495       H  0.43664932  0.13124845  0.34273091     0.09500
H4496       H  0.45716193  0.15083538  0.31869890     0.13100
H4497       H  0.39848178  0.18526868  0.35543992     0.11800
H4498       H  0.40481036  0.21745067  0.33784203     0.13000
H4499       H  0.42303426  0.23766966  0.31136195     0.12100
H4500       H  0.47627548  0.16990532  0.30015933     0.09100
H4501       H  0.49253335  0.19045778  0.27343483     0.12400
H4502       H  0.44888086  0.24042759  0.28386470     0.14300
C4503       C  0.54526832  0.28715584  0.27578094    -0.01200
C4504       C  0.56699609  0.28624382  0.27728621    -0.09300
C4505       C  0.57744044  0.29703685  0.29316833    -0.18100
C4506       C  0.56629642  0.30882467  0.30828459     0.04300
C4507       C  0.54414295  0.30852444  0.30735145     0.18500
C4508       C  0.53391001  0.29807170  0.29098512    -0.19500
C4509       C  0.53233627  0.31897662  0.32253110    -0.20800
C4510       C  0.54205617  0.33032896  0.33830564    -0.19300
C4511       C  0.56381738  0.33204772  0.33893326     0.19900
C4512       C  0.57625046  0.32122971  0.32399607     0.02000
C4513       C  0.59805550  0.32387858  0.32501015    -0.14100
C4514       C  0.60697123  0.33761127  0.33934615    -0.11800
C4515       C  0.59470650  0.34925828  0.35349868     0.01500
C4516       C  0.57311737  0.34518628  0.35394393    -0.23900
H4517       H  0.57597697  0.27780204  0.26566228     0.09500
H4518       H  0.59421390  0.29593510  0.29311397     0.13100
H4519       H  0.51702037  0.29853177  0.28994822     0.11800
H4520       H  0.51543783  0.31854191  0.32208042     0.13000
H4521       H  0.53243629  0.33844045  0.34965916     0.12100
H4522       H  0.60863748  0.31622790  0.31437654     0.09100
H4523       H  0.62369343  0.33988296  0.33874473     0.12400
H4524       H  0.56322020  0.35264608  0.36542204     0.14300
C4525       C  0.61577359  0.11682662  0.14410270    -0.01200
C4526       C  0.60241632  0.12884852  0.13139078    -0.09300
C4527       C  0.58841471  0.14321578  0.13988368    -0.18100
C4528       C  0.58709353  0.14640543  0.16171311     0.04300
C4529       C  0.59937645  0.13338082  0.17477664     0.18500
C4530       C  0.61276662  0.11820557  0.16598987    -0.19500
C4531       C  0.59875815  0.13607734  0.19654595    -0.20800
C4532       C  0.58682499  0.15196397  0.20553993    -0.19300
C4533       C  0.57481283  0.16533658  0.19306087     0.19900
C4534       C  0.57441963  0.16236024  0.17098314     0.02000
C4535       C  0.56162024  0.17573614  0.15905941    -0.14100
C4536       C  0.55036858  0.19179842  0.16844892    -0.11800
C4537       C  0.55123323  0.19535780  0.19013734     0.01500
C4538       C  0.56332373  0.18177636  0.20244117    -0.23900
H4539       H  0.60356430  0.12788124  0.11452148     0.09500
H4540       H  0.57942436  0.15211130  0.12879671     0.13100
H4541       H  0.62118427  0.10805243  0.17650169     0.11800
H4542       H  0.60805523  0.12620222  0.20668016     0.13000
H4543       H  0.58714000  0.15391005  0.22237865     0.12100
H4544       H  0.55993449  0.17429083  0.14236418     0.09100
H4545       H  0.54090619  0.20159405  0.15840742     0.12400
H4546       H  0.56393648  0.18406526  0.21923196     0.14300
C4547       C  0.44996876  0.31491291  0.20284405    -0.01200
C4548       C  0.45309481  0.33617661  0.20701547    -0.09300
C4549       C  0.44083076  0.35152119  0.19726260    -0.18100
C4550       C  0.42533895  0.34610028  0.18242318     0.04300
C4551       C  0.42227660  0.32448630  0.17829093     0.18500
C4552       C  0.43420171  0.30924644  0.18874082    -0.19500
C4553       C  0.40774329  0.31815044  0.16326099    -0.20800
C4554       C  0.39621175  0.33277008  0.15212693    -0.19300
C4555       C  0.39856956  0.35415214  0.15597610     0.19900
C4556       C  0.41303678  0.36120442  0.17123226     0.02000
C4557       C  0.41466498  0.38301670  0.17430653    -0.14100
C4558       C  0.40211869  0.39706298  0.16306126    -0.11800
C4559       C  0.38715152  0.39011956  0.14846461     0.01500
C4560       C  0.38642010  0.36842456  0.14451921    -0.23900
H4561       H  0.46529035  0.34099346  0.21770031     0.09500
H4562       H  0.44418744  0.36751465  0.20124374     0.13100
H4563       H  0.43192620  0.29288956  0.18501987     0.11800
H4564       H  0.40544163  0.30173250  0.15989634     0.13000
H4565       H  0.38521047  0.32726837  0.14049225     0.12100
H4566       H  0.42539949  0.38969603  0.18541801     0.09100
H4567       H  0.40383718  0.41361558  0.16603409     0.12400
H4568       H  0.37662198  0.36222145  0.13227897     0.14300
C4569       C  0.54955207  0.30089994  0.16673523    -0.01200
C4570       C  0.56340351  0.29071181  0.15321990    -0.09300
C4571       C  0.57930220  0.30175132  0.14320019    -0.18100
C4572       C  0.58162133  0.32351811  0.14619085     0.04300
C4573       C  0.56684555  0.33391365  0.15912250     0.18500
C4574       C  0.55129222  0.32253011  0.16952251    -0.19500
C4575       C  0.56766466  0.35560908  0.16157090    -0.20800
C4576       C  0.58272789  0.36727411  0.15120861    -0.19300
C4577       C  0.59772496  0.35746152  0.13866140     0.19900
C4578       C  0.59775197  0.33541770  0.13646001     0.02000
C4579       C  0.61409631  0.32623857  0.12485782    -0.14100
C4580       C  0.62871375  0.33848912  0.11437357    -0.11800
C4581       C  0.62734333  0.36047232  0.11449440     0.01500
C4582       C  0.61246939  0.36963279  0.12797356    -0.23900
H4583       H  0.56233478  0.27400116  0.15087219     0.09500
H4584       H  0.58938144  0.29287191  0.13302515     0.13100
H4585       H  0.54043155  0.33054160  0.17978896     0.11800
H4586       H  0.55637134  0.36365118  0.17130939     0.13000
H4587       H  0.58267242  0.38408944  0.15305951     0.12100
H4588       H  0.61611678  0.30956779  0.12375264     0.09100
H4589       H  0.64095298  0.33035329  0.10609284     0.12400
H4590       H  0.61172423  0.38649786  0.12921681     0.14300
C4591       C  0.45513551  0.21481573  0.16735315    -0.01200
C4592       C  0.46297786  0.20321961  0.15050840    -0.09300
C4593       C  0.45027841  0.18892262  0.13994581    -0.18100
C4594       C  0.42916223  0.18607825  0.14578822     0.04300
C4595       C  0.42128763  0.19821394  0.16266830     0.18500
C4596       C  0.43432386  0.21207208  0.17341164    -0.19500
C4597       C  0.40031967  0.19676263  0.16853943    -0.20800
C4598       C  0.38670602  0.18413109  0.15741068    -0.19300
C4599       C  0.39388966  0.17218371  0.14056609     0.19900
C4600       C  0.41533163  0.17227784  0.13504659     0.02000
C4601       C  0.42189878  0.15853068  0.11907092    -0.14100
C4602       C  0.40746053  0.14673536  0.10772563    -0.11800
C4603       C  0.38582199  0.14889841  0.11123234     0.01500
C4604       C  0.37955916  0.16058745  0.12884567    -0.23900
H4605       H  0.47908798  0.20495107  0.14570158     0.09500
H4606       H  0.45725799  0.18065404  0.12701332     0.13100
H4607       H  0.42810155  0.22106502  0.18638461     0.11800
H4608       H  0.39426700  0.20592743  0.18145570     0.13000
H4609       H  0.37039505  0.18386630  0.16188360     0.12100
H4610       H  0.43813310  0.15642111  0.11515514     0.09100
H4611       H  0.41361866  0.13600355  0.09627598     0.12400
H4612       H  0.36310637  0.16150039  0.13272811     0.14300
C4613       C  0.27621111  0.54114065  0.28671274    -0.01200
C4614       C  0.27846878  0.56272124  0.28388416    -0.09300
C4615       C  0.29431517  0.57375311  0.29386119    -0.18100
C4616       C  0.30857158  0.56360224  0.30730262     0.04300
C4617       C  0.30642424  0.54168136  0.31005592     0.18500
C4618       C  0.29047446  0.53065978  0.29965925    -0.19500
C4619       C  0.31992848  0.53099318  0.32353559    -0.20800
C4620       C  0.33509429  0.54169856  0.33482926    -0.19300
C4621       C  0.33739571  0.56333326  0.33268682     0.19900
C4622       C  0.32447764  0.57450965  0.31854065     0.02000
C4623       C  0.32765377  0.59622083  0.31670171    -0.14100
C4624       C  0.34237016  0.60647999  0.32898023    -0.11800
C4625       C  0.35498923  0.59569685  0.34340884     0.01500
C4626       C  0.35215432  0.57390200  0.34508937    -0.23900
H4627       H  0.26778288  0.57130935  0.27396398     0.09500
H4628       H  0.29470520  0.59029368  0.29095393     0.13100
H4629       H  0.28891577  0.51398588  0.30202282     0.11800
H4630       H  0.31847975  0.51428579  0.32568956     0.13000
H4631       H  0.34498885  0.53299841  0.34546593     0.12100
H4632       H  0.31879167  0.60587905  0.30616177     0.09100
H4633       H  0.34359807  0.62327773  0.32756291     0.12400
H4634       H  0.36050792  0.56501622  0.35674806     0.14300
C4635       C  0.35919565  0.41936256  0.15138339    -0.01200
C4636       C  0.35723841  0.41510066  0.17295673    -0.09300
C4637       C  0.34214209  0.42503576  0.18527994    -0.18100
C4638       C  0.32787542  0.43941708  0.17654970     0.04300
C4639       C  0.32983497  0.44394765  0.15490214     0.18500
C4640       C  0.34519904  0.43404473  0.14274041    -0.19500
C4641       C  0.31608142  0.45795905  0.14530129    -0.20800
C4642       C  0.30020420  0.46741281  0.15669940    -0.19300
C4643       C  0.29762625  0.46306775  0.17799442     0.19900
C4644       C  0.31144257  0.44909317  0.18832372     0.02000
C4645       C  0.30796538  0.44526292  0.20986982    -0.14100
C4646       C  0.29140645  0.45478393  0.22057998    -0.11800
C4647       C  0.27777086  0.46846070  0.21027200     0.01500
C4648       C  0.28112750  0.47254040  0.18894466    -0.23900
H4649       H  0.36659982  0.40333142  0.18054481     0.09500
H4650       H  0.34167705  0.42065400  0.20153957     0.13100
H4651       H  0.34587444  0.43723161  0.12609641     0.11800
H4652       H  0.31748872  0.46149415  0.12878471     0.13000
H4653       H  0.28973712  0.47807623  0.14873781     0.12100
H4654       H  0.31770987  0.43491462  0.21888016     0.09100
H4655       H  0.28924608  0.45133019  0.23701696     0.12400
H4656       H  0.27076804  0.48309346  0.18068963     0.14300
C4657       C  0.15257571  0.62928672  0.12014138    -0.01200
C4658       C  0.15096057  0.63416319  0.14161855    -0.09300
C4659       C  0.16191965  0.62290738  0.15673302    -0.18100
C4660       C  0.17534982  0.60635633  0.15110462     0.04300
C4661       C  0.17837118  0.60242754  0.12944184     0.18500
C4662       C  0.16754837  0.61419009  0.11434168    -0.19500
C4663       C  0.19176264  0.58639277  0.12296305    -0.20800
C4664       C  0.20150508  0.57355877  0.13755675    -0.19300
C4665       C  0.19827585  0.57656212  0.15901387     0.19900
C4666       C  0.18558764  0.59334734  0.16614697     0.02000
C4667       C  0.18323117  0.59594980  0.18801037    -0.14100
C4668       C  0.19225833  0.58191642  0.20208437    -0.11800
C4669       C  0.20385652  0.56476348  0.19495031     0.01500
C4670       C  0.20717999  0.56248449  0.17336261    -0.23900
H4671       H  0.14142282  0.64693019  0.14714391     0.09500
H4672       H  0.15939378  0.62750910  0.17274593     0.13100
H4673       H  0.17001037  0.61094272  0.09787001     0.11800
H4674       H  0.19430195  0.58340202  0.10646618     0.13000
H4675       H  0.21134430  0.56094269  0.13199833     0.12100
H4676       H  0.17413060  0.60839669  0.19476217     0.09100
H4677       H  0.18940959  0.58408081  0.21864917     0.12400
H4678       H  0.21627086  0.54937708  0.16764396     0.14300
C4679       C  0.19806025  0.44801762  0.30119987    -0.01200
C4680       C  0.20959440  0.44368383  0.31932285    -0.09300
C4681       C  0.20126734  0.43093636  0.33514811    -0.18100
C4682       C  0.18113727  0.42198493  0.33317359     0.04300
C4683       C  0.17020038  0.42541410  0.31414930     0.18500
C4684       C  0.17857519  0.43838533  0.29863951    -0.19500
C4685       C  0.15072700  0.41618873  0.31077199    -0.20800
C4686       C  0.14180181  0.40353097  0.32590205    -0.19300
C4687       C  0.15177497  0.40033538  0.34510199     0.19900
C4688       C  0.17133463  0.40986806  0.34927231     0.02000
C4689       C  0.17961858  0.40764150  0.36964425    -0.14100
C4690       C  0.16897112  0.39627808  0.38504280    -0.11800
C4691       C  0.15037475  0.38546629  0.38049756     0.01500
C4692       C  0.14183254  0.38812821  0.36033583    -0.23900
H4693       H  0.22474302  0.45077872  0.32162891     0.09500
H4694       H  0.21085494  0.42836007  0.34877349     0.13100
H4695       H  0.16962724  0.44127858  0.28452951     0.11800
H4696       H  0.14234148  0.41873212  0.29626801     0.13000
H4697       H  0.12674702  0.39653534  0.32271368     0.12100
H4698       H  0.19389442  0.41520433  0.37432741     0.09100
H4699       H  0.17542699  0.39575807  0.40068936     0.12400
H4700       H  0.12673021  0.38159642  0.35660278     0.14300
C4701       C  0.16360166  0.54616798  0.29256963    -0.01200
C4702       C  0.14607502  0.55597410  0.28413943    -0.09300
C4703       C  0.13458833  0.57017364  0.29605783    -0.18100
C4704       C  0.14024935  0.57476037  0.31698019     0.04300
C4705       C  0.15700007  0.56332001  0.32598259     0.18500
C4706       C  0.16879568  0.54950025  0.31360110    -0.19500
C4707       C  0.16214313  0.56617293  0.34709241    -0.20800
C4708       C  0.15138999  0.58066930  0.35928971    -0.19300
C4709       C  0.13586695  0.59328895  0.35042999     0.19900
C4710       C  0.13020234  0.59056490  0.32912384     0.02000
C4711       C  0.11520329  0.60423778  0.32065260    -0.14100
C4712       C  0.10682251  0.62043885  0.33248853    -0.11800
C4713       C  0.11295469  0.62394557  0.35342213     0.01500
C4714       C  0.12645149  0.60908458  0.36254568    -0.23900
H4715       H  0.14184165  0.55340237  0.26792899     0.09500
H4716       H  0.12147503  0.57739988  0.28838292     0.13100
H4717       H  0.18227019  0.54161430  0.32017596     0.11800
H4718       H  0.17465536  0.55723858  0.35417463     0.13000
H4719       H  0.15581356  0.58259453  0.37554042     0.12100
H4720       H  0.10993080  0.60320079  0.30468627     0.09100
H4721       H  0.09507387  0.62991781  0.32495225     0.12400
H4722       H  0.13046008  0.61054469  0.37895968     0.14300
C4723       C  0.11134195  0.38731931  0.14158312    -0.01200
C4724       C  0.10030546  0.40240038  0.15326391    -0.09300
C4725       C  0.11046726  0.41873391  0.16331403    -0.18100
C4726       C  0.13228502  0.42098856  0.16186175     0.04300
C4727       C  0.14329290  0.40710673  0.14844784     0.18500
C4728       C  0.13277836  0.39081292  0.13816520    -0.19500
C4729       C  0.16482939  0.40935183  0.14564286    -0.20800
C4730       C  0.17579029  0.42461406  0.15649518    -0.19300
C4731       C  0.16551537  0.43786141  0.17057274     0.19900
C4732       C  0.14357957  0.43636737  0.17337552     0.02000
C4733       C  0.13405070  0.44978567  0.18818948    -0.14100
C4734       C  0.14592514  0.46355836  0.20018712    -0.11800
C4735       C  0.16755810  0.46471894  0.19757711     0.01500
C4736       C  0.17717820  0.45216248  0.18237682    -0.23900
H4737       H  0.08358244  0.40103900  0.15525848     0.09500
H4738       H  0.10076993  0.42922122  0.17222864     0.13100
H4739       H  0.14149778  0.38107153  0.12747081     0.11800
H4740       H  0.17332833  0.39898447  0.13527438     0.13000
H4741       H  0.19251336  0.42571874  0.15424949     0.12100
H4742       H  0.11755074  0.44959698  0.19136625     0.09100
H4743       H  0.13814159  0.47319955  0.21174036     0.12400
H4744       H  0.19396067  0.45285774  0.18033714     0.14300
C4745       C  0.78513197  0.78758976  0.03629968    -0.01200
C4746       C  0.77516034  0.80282406  0.04850969    -0.09300
C4747       C  0.78643424  0.81940723  0.05723587    -0.18100
C4748       C  0.80824159  0.82121980  0.05417260     0.04300
C4749       C  0.81818456  0.80604882  0.04134672     0.18500
C4750       C  0.80660357  0.78972584  0.03235395    -0.19500
C4751       C  0.83980175  0.80675622  0.03822496    -0.20800
C4752       C  0.85196387  0.82140131  0.04866191    -0.19300
C4753       C  0.84274950  0.83607470  0.06202902     0.19900
C4754       C  0.82071709  0.83684709  0.06418382     0.02000
C4755       C  0.81223340  0.85308986  0.07646876    -0.14100
C4756       C  0.82510349  0.86659143  0.08782770    -0.11800
C4757       C  0.84697404  0.86396110  0.08815641     0.01500
C4758       C  0.85551356  0.84953930  0.07377957    -0.23900
H4759       H  0.75861513  0.80169978  0.05174580     0.09500
H4760       H  0.77779046  0.83013516  0.06694381     0.13100
H4761       H  0.81457315  0.77820556  0.02280969     0.11800
H4762       H  0.84746961  0.79538186  0.02827472     0.13000
H4763       H  0.86874201  0.82097764  0.04658197     0.12100
H4764       H  0.79565666  0.85578802  0.07754322     0.09100
H4765       H  0.81752227  0.87894910  0.09644250     0.12400
H4766       H  0.87232087  0.84801713  0.07260903     0.14300
C4767       C  0.64910327  0.85973448  0.91020621    -0.01200
C4768       C  0.64675402  0.85807057  0.93205826    -0.09300
C4769       C  0.65906638  0.84440508  0.94374959    -0.18100
C4770       C  0.67383111  0.83119824  0.93401951     0.04300
C4771       C  0.67592822  0.83244378  0.91196013     0.18500
C4772       C  0.66380580  0.84655996  0.90046011    -0.19500
C4773       C  0.68965831  0.81913512  0.90135294    -0.20800
C4774       C  0.70101852  0.80416646  0.91217740    -0.19300
C4775       C  0.69916854  0.80238472  0.93390710     0.19900
C4776       C  0.68592878  0.81618132  0.94523468     0.02000
C4777       C  0.68518373  0.81411511  0.96724292    -0.14100
C4778       C  0.69633241  0.79839220  0.97741580    -0.11800
C4779       C  0.70866811  0.78427405  0.96608570     0.01500
C4780       C  0.71027569  0.78663521  0.94433741    -0.23900
H4781       H  0.63478859  0.86652124  0.94040162     0.09500
H4782       H  0.65602190  0.84396800  0.96031500     0.13100
H4783       H  0.66534618  0.84694633  0.88356777     0.11800
H4784       H  0.69130159  0.82001540  0.88450082     0.13000
H4785       H  0.71119960  0.79379626  0.90346499     0.12100
H4786       H  0.67611153  0.82436259  0.97705807     0.09100
H4787       H  0.69505524  0.79716832  0.99426430     0.12400
H4788       H  0.71999189  0.77600688  0.93539533     0.14300
C4789       C  0.68543472  0.71162090  0.05363771    -0.01200
C4790       C  0.68454054  0.71662640  0.07493034    -0.09300
C4791       C  0.66980336  0.70697700  0.08799407    -0.18100
C4792       C  0.65556183  0.69204217  0.07996783     0.04300
C4793       C  0.65561894  0.68845849  0.05802895     0.18500
C4794       C  0.67049077  0.69808899  0.04524526    -0.19500
C4795       C  0.64135755  0.67464823  0.04899055    -0.20800
C4796       C  0.62714109  0.66397739  0.06132589    -0.19300
C4797       C  0.62714819  0.66644578  0.08308053     0.19900
C4798       C  0.64151567  0.68025675  0.09278119     0.02000
C4799       C  0.64184324  0.68080525  0.11484811    -0.14100
C4800       C  0.62801173  0.66868902  0.12664185    -0.11800
C4801       C  0.61243693  0.65629804  0.11712376     0.01500
C4802       C  0.61304538  0.65474903  0.09509965    -0.23900
H4803       H  0.69598359  0.72706015  0.08169130     0.09500
H4804       H  0.67012653  0.71117834  0.10433124     0.13100
H4805       H  0.67106164  0.69432234  0.02869582     0.11800
H4806       H  0.64128984  0.67196020  0.03224504     0.13000
H4807       H  0.61630650  0.65338980  0.05380035     0.12100
H4808       H  0.65296383  0.69008018  0.12342327     0.09100
H4809       H  0.62911378  0.66937892  0.14354033     0.12400
H4810       H  0.60311323  0.64395804  0.08686622     0.14300
C4811       C  0.87768716  0.65466897  0.88560467    -0.01200
C4812       C  0.86309042  0.66842684  0.87649056    -0.09300
C4813       C  0.84841848  0.67923559  0.88858059    -0.18100
C4814       C  0.84746361  0.67652082  0.91048596     0.04300
C4815       C  0.86176714  0.66229402  0.91969845     0.18500
C4816       C  0.87601781  0.65118141  0.90731412    -0.19500
C4817       C  0.86174054  0.65899703  0.94132598    -0.20800
C4818       C  0.84791683  0.66970382  0.95411747    -0.19300
C4819       C  0.83341695  0.68359904  0.94556053     0.19900
C4820       C  0.83271737  0.68708419  0.92360669     0.02000
C4821       C  0.81706502  0.70067040  0.91585134    -0.14100
C4822       C  0.80266093  0.71014381  0.92936532    -0.11800
C4823       C  0.80370426  0.70678670  0.95100053     0.01500
C4824       C  0.81929427  0.69366143  0.95892685    -0.23900
H4825       H  0.86307985  0.67081210  0.85971681     0.09500
H4826       H  0.83807188  0.68963332  0.88032511     0.13100
H4827       H  0.88520384  0.63927737  0.91491031     0.11800
H4828       H  0.87264011  0.64817115  0.94845071     0.13000
H4829       H  0.84840189  0.66688579  0.97082783     0.12100
H4830       H  0.81530297  0.70394857  0.89941615     0.09100
H4831       H  0.79061656  0.72007834  0.92284842     0.12400
H4832       H  0.81998165  0.69059644  0.97559702     0.14300
C4833       C  0.70643641  0.67174730  0.95757387    -0.01200
C4834       C  0.68474718  0.67396055  0.95777979    -0.09300
C4835       C  0.67235648  0.66338927  0.94324470    -0.18100
C4836       C  0.68143315  0.65039058  0.92778713     0.04300
C4837       C  0.70348842  0.64766758  0.92821020     0.18500
C4838       C  0.71574010  0.65834668  0.94302092    -0.19500
C4839       C  0.71323527  0.63472565  0.91351223    -0.20800
C4840       C  0.70162492  0.62467532  0.89815175    -0.19300
C4841       C  0.67998579  0.62753340  0.89687936     0.19900
C4842       C  0.66954564  0.64034508  0.91170274     0.02000
C4843       C  0.64772265  0.64268187  0.90961112    -0.14100
C4844       C  0.63689174  0.63315321  0.89323165    -0.11800
C4845       C  0.64718782  0.62101597  0.87797656     0.01500
C4846       C  0.66882752  0.61770161  0.88069929    -0.23900
H4847       H  0.67738807  0.68441174  0.96890689     0.09500
H4848       H  0.65578792  0.66604868  0.94427130     0.13100
H4849       H  0.73259656  0.65682546  0.94277300     0.11800
H4850       H  0.73000147  0.63249952  0.91377930     0.13000
H4851       H  0.70971001  0.61487925  0.88692786     0.12100
H4852       H  0.63853806  0.65193004  0.92027617     0.09100
H4853       H  0.62017138  0.63547456  0.89226660     0.12400
H4854       H  0.67732598  0.60723828  0.87054941     0.14300
C4855       C  0.85028261  0.62298293  0.12772769    -0.01200
C4856       C  0.83596168  0.61182255  0.11527166    -0.09300
C4857       C  0.82152012  0.62196470  0.10253706    -0.18100
C4858       C  0.82061817  0.64393539  0.10170353     0.04300
C4859       C  0.83381742  0.65531862  0.11545197     0.18500
C4860       C  0.84787304  0.64484359  0.12874122    -0.19500
C4861       C  0.83345689  0.67716313  0.11532827    -0.20800
C4862       C  0.82124899  0.68793392  0.10092977    -0.19300
C4863       C  0.80875833  0.67713469  0.08659032     0.19900
C4864       C  0.80762524  0.65500440  0.08727364     0.02000
C4865       C  0.79399066  0.64494700  0.07304962    -0.14100
C4866       C  0.78288072  0.65631163  0.05806922    -0.11800
C4867       C  0.78510517  0.67797330  0.05661449     0.01500
C4868       C  0.79773166  0.68832672  0.07124731    -0.23900
H4869       H  0.83661206  0.59494887  0.11466495     0.09500
H4870       H  0.81177679  0.61211070  0.09301580     0.13100
H4871       H  0.85710333  0.65398655  0.13951083     0.11800
H4872       H  0.84328201  0.68598936  0.12591316     0.13000
H4873       H  0.82188890  0.70483303  0.10074736     0.12100
H4874       H  0.79172754  0.62829723  0.07291973     0.09100
H4875       H  0.77297086  0.64800824  0.04715841     0.12400
H4876       H  0.79913019  0.70517680  0.07058412     0.14300
C4877       C  0.28535186  0.78396548  0.46494989    -0.01200
C4878       C  0.27478409  0.79880246  0.45280860    -0.09300
C4879       C  0.28559675  0.81522806  0.44330430    -0.18100
C4880       C  0.30747723  0.81730531  0.44561446     0.04300
C4881       C  0.31801616  0.80240382  0.45824965     0.18500
C4882       C  0.30695472  0.78615050  0.46782155    -0.19500
C4883       C  0.33965841  0.80347391  0.46091383    -0.20800
C4884       C  0.35123504  0.81865645  0.45071855    -0.19300
C4885       C  0.34143212  0.83327468  0.43777819     0.19900
C4886       C  0.31940632  0.83317990  0.43541047     0.02000
C4887       C  0.31039129  0.84890747  0.42284221    -0.14100
C4888       C  0.32280696  0.86314462  0.41193158    -0.11800
C4889       C  0.34477669  0.86197377  0.41260840     0.01500
C4890       C  0.35368765  0.84766935  0.42678769    -0.23900
H4891       H  0.25812018  0.79753064  0.45031912     0.09500
H4892       H  0.27646811  0.82577498  0.43388282     0.13100
H4893       H  0.31538549  0.77486836  0.47722847     0.11800
H4894       H  0.34775983  0.79220852  0.47061598     0.13000
H4895       H  0.36802788  0.81876883  0.45273081     0.12100
H4896       H  0.29374816  0.85063227  0.42113523     0.09100
H4897       H  0.31483499  0.87500463  0.40299177     0.12400
H4898       H  0.37051069  0.84707020  0.42845819     0.14300
C4899       C  0.14875979  0.85715393  0.58979716    -0.01200
C4900       C  0.17068142  0.85791300  0.59145222    -0.09300
C4901       C  0.18332207  0.84319477  0.58122403    -0.18100
C4902       C  0.17459403  0.82769326  0.56813467     0.04300
C4903       C  0.15275868  0.82840995  0.56461676     0.18500
C4904       C  0.14021971  0.84264994  0.57556883    -0.19500
C4905       C  0.14343490  0.81471544  0.55035711    -0.20800
C4906       C  0.15536537  0.80010782  0.53960329    -0.19300
C4907       C  0.17674929  0.79819037  0.54355644     0.19900
C4908       C  0.18665302  0.81164180  0.55821643     0.02000
C4909       C  0.20795311  0.80791118  0.56280187    -0.14100
C4910       C  0.21891963  0.79162905  0.55304485    -0.11800
C4911       C  0.20921772  0.77906276  0.53798986     0.01500
C4912       C  0.18818737  0.78256200  0.53321746    -0.23900
H4913       H  0.17835821  0.86964191  0.60080272     0.09500
H4914       H  0.19994136  0.84451111  0.58352793     0.13100
H4915       H  0.12346240  0.84205032  0.57344440     0.11800
H4916       H  0.12679164  0.81537982  0.54740933     0.13000
H4917       H  0.14769740  0.78984443  0.52853583     0.12100
H4918       H  0.21632365  0.81696259  0.57428517     0.09100
H4919       H  0.23515234  0.78906198  0.55702065     0.12400
H4920       H  0.18052612  0.77260908  0.52184071     0.14300
C4921       C  0.19405166  0.70784047  0.44234253    -0.01200
C4922       C  0.17334126  0.71468837  0.44328107    -0.09300
C4923       C  0.15826203  0.70603762  0.42993784    -0.18100
C4924       C  0.16365771  0.69032717  0.41521236     0.04300
C4925       C  0.18501573  0.68451400  0.41367158     0.18500
C4926       C  0.19982364  0.69319024  0.42718391    -0.19500
C4927       C  0.19146943  0.66951784  0.39913725    -0.20800
C4928       C  0.17705891  0.65961630  0.38638194    -0.19300
C4929       C  0.15578426  0.66418951  0.38810513     0.19900
C4930       C  0.14873576  0.67972806  0.40236543     0.02000
C4931       C  0.12707386  0.68361855  0.40334548    -0.14100
C4932       C  0.11304953  0.67177913  0.39154630    -0.11800
C4933       C  0.11987488  0.65538908  0.37844626     0.01500
C4934       C  0.14154846  0.65285553  0.37589858    -0.23900
H4935       H  0.16860875  0.72590502  0.45505995     0.09500
H4936       H  0.14248442  0.71156339  0.43184785     0.13100
H4937       H  0.21592246  0.68794724  0.42643694     0.11800
H4938       H  0.20777433  0.66517221  0.39784031     0.13000
H4939       H  0.18255213  0.64783922  0.37549707     0.12100
H4940       H  0.12044662  0.69538518  0.41341943     0.09100
H4941       H  0.09651776  0.67493907  0.39318608     0.12400
H4942       H  0.14770823  0.64205389  0.36448677     0.14300
C4943       C  0.30676457  0.70446472  0.55234507    -0.01200
C4944       C  0.32798172  0.70587806  0.54719360    -0.09300
C4945       C  0.34327697  0.69705149  0.56005864    -0.18100
C4946       C  0.33781364  0.68613600  0.57847842     0.04300
C4947       C  0.31626755  0.68462073  0.58356598     0.18500
C4948       C  0.30108728  0.69404353  0.57076700    -0.19500
C4949       C  0.30993376  0.67321165  0.60109897    -0.20800
C4950       C  0.32448824  0.66276458  0.61338299    -0.19300
C4951       C  0.34580817  0.66384048  0.60874291     0.19900
C4952       C  0.35284510  0.67609548  0.59165713     0.02000
C4953       C  0.37460611  0.67786848  0.58866256    -0.14100
C4954       C  0.38863578  0.66680614  0.60120980    -0.11800
C4955       C  0.38166622  0.65282762  0.61668446     0.01500
C4956       C  0.36008603  0.65255317  0.62105137    -0.23900
H4957       H  0.33281300  0.71365406  0.53296519     0.09500
H4958       H  0.35919482  0.69846559  0.55482426     0.13100
H4959       H  0.28471414  0.69249634  0.57473738     0.11800
H4960       H  0.29354446  0.67195746  0.60507334     0.13000
H4961       H  0.31899941  0.65365253  0.62654609     0.12100
H4962       H  0.38127505  0.68777823  0.57681935     0.09100
H4963       H  0.40518789  0.66848103  0.59823925     0.12400
H4964       H  0.35415007  0.64373311  0.63416401     0.14300
C4965       C  0.14346271  0.61531830  0.61549407    -0.01200
C4966       C  0.13377536  0.62923514  0.60148515    -0.09300
C4967       C  0.14503377  0.63912252  0.58567085    -0.18100
C4968       C  0.16647037  0.63492476  0.58267437     0.04300
C4969       C  0.17578618  0.61923918  0.59526561     0.18500
C4970       C  0.16432547  0.60956881  0.61126580    -0.19500
C4971       C  0.19661883  0.61344997  0.59201336    -0.20800
C4972       C  0.20867424  0.62350474  0.57703226    -0.19300
C4973       C  0.20031462  0.63986687  0.56521021     0.19900
C4974       C  0.17903376  0.64577555  0.56777420     0.02000
C4975       C  0.17154730  0.66291187  0.55600628    -0.14100
C4976       C  0.18483698  0.67412699  0.54290973    -0.11800
C4977       C  0.20574228  0.66833719  0.54069970     0.01500
C4978       C  0.21333661  0.65093134  0.55144201    -0.23900
H4979       H  0.11739509  0.63302158  0.60325217     0.09500
H4980       H  0.13647718  0.64992107  0.57600389     0.13100
H4981       H  0.17186232  0.59742369  0.62027768     0.11800
H4982       H  0.20374794  0.60125907  0.60134970     0.13000
H4983       H  0.22483701  0.61886895  0.57512920     0.12100
H4984       H  0.15575250  0.66856974  0.55722151     0.09100
H4985       H  0.17886322  0.68769833  0.53475149     0.12400
H4986       H  0.22965952  0.64669554  0.54990092     0.14300
C4987       C  0.29133349  0.67476177  0.44747091    -0.01200
C4988       C  0.30400909  0.68614315  0.43376324    -0.09300
C4989       C  0.31491041  0.67628765  0.41769102    -0.18100
C4990       C  0.31375772  0.65446316  0.41487285     0.04300
C4991       C  0.30109752  0.64284430  0.42892499     0.18500
C4992       C  0.28969016  0.65308962  0.44476845    -0.19500
C4993       C  0.30036070  0.62105131  0.42737219    -0.20800
C4994       C  0.31256426  0.61053205  0.41270578    -0.19300
C4995       C  0.32533302  0.62158467  0.39883048     0.19900
C4996       C  0.32543900  0.64371109  0.39917478     0.02000
C4997       C  0.33727776  0.65412749  0.38379403    -0.14100
C4998       C  0.35022387  0.64311829  0.37015564    -0.11800
C4999       C  0.35239404  0.62128347  0.37162299     0.01500
C5000       C  0.33845227  0.61065811  0.38498415    -0.23900
H5001       H  0.30548051  0.70290689  0.43539333     0.09500
H5002       H  0.32459276  0.68614194  0.40811855     0.13100
H5003       H  0.28001839  0.64412538  0.45536319     0.11800
H5004       H  0.29075401  0.61204107  0.43797553     0.13000
H5005       H  0.31218133  0.59362779  0.41236523     0.12100
H5006       H  0.33676923  0.67081996  0.38180668     0.09100
H5007       H  0.35852705  0.65203703  0.35850894     0.12400
H5008       H  0.33876564  0.59374614  0.38541691     0.14300
loop_ 
_geom_bond_atom_site_label_1 
_geom_bond_atom_site_label_2 
_geom_bond_distance 
_geom_bond_site_symmetry_2 
_ccdc_geom_bond_type 
Zn1           O5   1.919       .  S
Zn1           O6   2.004       .  S
Zn1          O10   2.017       .  S
Zn1          O17   1.995       .  S
Zn2           O5   1.948       .  S
Zn2           O7   2.031       .  S
Zn2           O9   2.039       .  S
Zn2          O13   1.985       .  S
Zn3           O5   1.933       .  S
Zn3           O8   2.036       .  S
Zn3          O11   2.011       .  S
Zn3          O14   2.042       .  S
Zn4           O5   1.957       .  S
Zn4          O12   2.028       .  S
Zn4          O15   2.054       .  S
Zn4          O16   2.054       .  S
O6           C18   1.273       .  A
O7           C19   1.275       .  A
O8           C20   1.277       .  A
O9           C18   1.275       .  A
O10          C20   1.275       .  A
O11          C19   1.274       .  A
O12          C21   1.276       .  A
O13          C22   1.271       .  A
O14          C21   1.278       .  A
O15          C22   1.278       .  A
O16          C23   1.280       .  A
O17          C23   1.274       .  A
C18        C4987   1.482       .  S
C19        C4977   1.467       .  S
C20        C4943   1.485       .  S
C21        C4911   1.479       .  S
C22        C4921   1.472       .  S
C23        C4877   1.486       .  S
Zn24         O28   1.913       .  S
Zn24         O29   2.008   1_554  S
Zn24         O33   2.008       .  S
Zn24         O40   2.008       .  S
Zn25         O28   1.936   1_556  S
Zn25         O30   2.011       .  S
Zn25         O32   2.028       .  S
Zn25         O36   2.009       .  S
Zn26         O28   1.938       .  S
Zn26         O31   2.039       .  S
Zn26         O34   2.042   1_554  S
Zn26         O37   1.982       .  S
Zn27         O28   1.956       .  S
Zn27         O35   2.074       .  S
Zn27         O38   2.025   1_554  S
Zn27         O39   2.061       .  S
O29          C41   1.275       .  A
O30          C42   1.272       .  A
O31          C43   1.277       .  A
O32          C41   1.275       .  A
O33          C43   1.273       .  A
O34          C42   1.276       .  A
O35          C44   1.281       .  A
O36          C45   1.276       .  A
O37          C44   1.271       .  A
O38          C45   1.277       .  A
O39          C46   1.281       .  A
O40          C46   1.275       .  A
C41        C4823   1.480       .  S
C42        C4833   1.470       .  S
C43        C4867   1.481       .  S
C44        C4789   1.476       .  S
C45        C4779   1.481       .  S
C46        C4745   1.491       .  S
Zn47         O51   1.932       .  S
Zn47         O52   2.001       .  S
Zn47         O56   2.023       .  S
Zn47         O63   2.002       .  S
Zn48         O51   1.964       .  S
Zn48         O53   2.056       .  S
Zn48         O55   2.062       .  S
Zn48         O59   2.082       .  S
Zn49         O51   1.919       .  S
Zn49         O54   2.027       .  S
Zn49         O57   1.993       .  S
Zn49         O60   2.002       .  S
Zn50         O51   1.939       .  S
Zn50         O58   2.036       .  S
Zn50         O61   1.993       .  S
Zn50         O62   2.026       .  S
O52          C64   1.275       .  A
O53          C65   1.279       .  A
O54          C66   1.275       .  A
O55          C64   1.281       .  A
O56          C66   1.274       .  A
O57          C65   1.274       .  A
O58          C67   1.275       .  A
O59          C68   1.282       .  A
O60          C67   1.271       .  A
O61          C68   1.273       .  A
O62          C69   1.275       .  A
O63          C69   1.272       .  A
C64        C4647   1.489       .  S
C65        C4613   1.486       .  S
C66        C4669   1.485       .  S
C67        C4701   1.468       .  S
C68        C4679   1.489       .  S
C69        C4735   1.478       .  S
Zn70         O74   1.921       .  S
Zn70         O75   1.990       .  S
Zn70         O79   2.041       .  S
Zn70         O86   2.029       .  S
Zn71         O74   1.929       .  S
Zn71         O76   2.037       .  S
Zn71         O78   2.035       .  S
Zn71         O82   1.977       .  S
Zn72         O74   1.925       .  S
Zn72         O77   2.030       .  S
Zn72         O80   2.001       .  S
Zn72         O83   2.009       .  S
Zn73         O74   1.957       .  S
Zn73         O81   2.054       .  S
Zn73         O84   2.087       .  S
Zn73         O85   2.033       .  S
O75          C87   1.273       .  A
O76          C88   1.278       .  A
O77          C89   1.274       .  A
O78          C87   1.278       .  A
O79          C89   1.276       .  A
O80          C88   1.274       .  A
O81          C90   1.280       .  A
O82          C91   1.270       .  A
O83          C90   1.276       .  A
O84          C91   1.280       .  A
O85          C92   1.278       .  A
O86          C92   1.278       .  A
C87        C4591   1.477       .  S
C88        C4569   1.477       .  S
C89        C4547   1.489       .  S
C90        C4503   1.473       .  S
C91        C4537   1.494       .  S
C92        C4493   1.481       .  S
Zn93         O97   1.932       .  S
Zn93         O98   2.019       .  S
Zn93        O102   2.055       .  S
Zn93        O109   2.033       .  S
Zn94         O97   1.930       .  S
Zn94         O99   2.023       .  S
Zn94        O101   2.036       .  S
Zn94        O105   1.984       .  S
Zn95         O97   1.928       .  S
Zn95        O100   2.022       .  S
Zn95        O103   2.014       .  S
Zn95        O106   2.009       .  S
Zn96         O97   1.964       .  S
Zn96        O104   2.059       .  S
Zn96        O107   2.075       .  S
Zn96        O108   2.026       .  S
O98         C110   1.274       .  A
O99         C111   1.276       .  A
O100        C112   1.274       .  A
O101        C110   1.276       .  A
O102        C112   1.279       .  A
O103        C111   1.275       .  A
O104        C113   1.280       .  A
O105        C114   1.272       .  A
O106        C113   1.275       .  A
O107        C114   1.279       .  A
O108        C115   1.277       .  A
O109        C115   1.279       .  A
C110       C4459   1.471       .  S
C111       C4437   1.481       .  S
C112       C4393   1.490       .  S
C113       C4361   1.479       .  S
C114       C4415   1.492       .  S
C115       C4383   1.484       .  S
Zn116       O120   1.941       .  S
Zn116       O121   2.057       .  S
Zn116       O125   2.000       .  S
Zn116       O132   2.039       .  S
Zn117       O120   1.911       .  S
Zn117       O122   2.003       .  S
Zn117       O124   1.992       .  S
Zn117       O128   1.999       .  S
Zn118       O120   1.952       .  S
Zn118       O123   2.059       .  S
Zn118       O126   2.035       .  S
Zn118       O129   2.038       .  S
Zn119       O120   1.938       .  S
Zn119       O127   2.019       .  S
Zn119       O130   2.054       .  S
Zn119       O131   2.005       .  S
O121        C133   1.279       .  A
O122        C134   1.274       .  A
O123        C135   1.278       .  A
O124        C133   1.273       .  A
O125        C135   1.273       .  A
O126        C134   1.278       .  A
O127        C136   1.276       .  A
O128        C137   1.273       .  A
O129        C136   1.278       .  A
O130        C137   1.276       .  A
O131        C138   1.273       .  A
O132        C138   1.278       .  A
C133       C4317   1.486       .  S
C134       C4217   1.475       .  S
C135       C4283   1.477       .  S
C136       C4251   1.480       .  S
C137       C4261   1.488       .  S
C138       C4327   1.467       .  S
Zn139       O143   1.929       .  S
Zn139       O144   2.006       .  S
Zn139       O148   1.994       .  S
Zn139       O155   2.016   1_455  S
Zn140       O143   1.960       .  S
Zn140       O145   2.048       .  S
Zn140       O147   2.037       .  S
Zn140       O151   2.014   1_455  S
Zn141       O143   1.961       .  S
Zn141       O146   2.043       .  S
Zn141       O149   2.005       .  S
Zn141       O152   2.035   1_455  S
Zn142       O143   1.953   1_655  S
Zn142       O150   2.000       .  S
Zn142       O153   2.029       .  S
Zn142       O154   2.034       .  S
O144        C156   1.273       .  A
O145        C157   1.277       .  A
O146        C158   1.275       .  A
O147        C156   1.276       .  A
O148        C158   1.271       .  A
O149        C157   1.272       .  A
O150        C159   1.272       .  A
O151        C160   1.275       .  A
O152        C159   1.276       .  A
O153        C160   1.277       .  A
O154        C161   1.274       .  A
O155        C161   1.275       .  A
C156       C4085   1.473       .  S
C157       C4141   1.472       .  S
C158       C4207   1.467       .  S
C159       C4185   1.470       .  S
C160       C4107   1.484       .  S
C161       C4151   1.488       .  S
Zn162       O166   1.899       .  S
Zn162       O167   1.968   1_545  S
Zn162       O171   1.975   1_545  S
Zn162       O178   1.987       .  S
Zn163       O166   1.950       .  S
Zn163       O168   1.999   1_545  S
Zn163       O170   2.060   1_545  S
Zn163       O174   2.054       .  S
Zn164       O166   1.962   1_565  S
Zn164       O169   2.067       .  S
Zn164       O172   2.082       .  S
Zn164       O175   2.039   1_565  S
Zn165       O166   1.939       .  S
Zn165       O173   2.025       .  S
Zn165       O176   1.984       .  S
Zn165       O177   2.061       .  S
O167        C179   1.269       .  A
O168        C180   1.273       .  A
O169        C181   1.281       .  A
O170        C179   1.279       .  A
O171        C181   1.272       .  A
O172        C180   1.282       .  A
O173        C182   1.279       .  A
O174        C183   1.279       .  A
O175        C182   1.279       .  A
O176        C183   1.273       .  A
O177        C184   1.276       .  A
O178        C184   1.270       .  A
C179       C4041   1.479       .  S
C180       C4019   1.487       .  S
C181       C3965   1.485       .  S
C182       C3975   1.487       .  S
C183       C4075   1.482       .  S
C184       C4009   1.490       .  S
Zn185       O189   1.939       .  S
Zn185       O190   2.055       .  S
Zn185       O194   2.070       .  S
Zn185       O201   1.989       .  S
Zn186       O189   1.927       .  S
Zn186       O191   2.048       .  S
Zn186       O193   1.982       .  S
Zn186       O197   2.036       .  S
Zn187       O189   1.900       .  S
Zn187       O192   1.995       .  S
Zn187       O195   2.001       .  S
Zn187       O198   1.998       .  S
Zn188       O189   1.945       .  S
Zn188       O196   2.051       .  S
Zn188       O199   2.027       .  S
Zn188       O200   2.064       .  S
O190        C202   1.281       .  A
O191        C203   1.276       .  A
O192        C204   1.273       .  A
O193        C202   1.273       .  A
O194        C204   1.281       .  A
O195        C203   1.272       .  A
O196        C205   1.281       .  A
O197        C206   1.278       .  A
O198        C205   1.275       .  A
O199        C206   1.276       .  A
O200        C207   1.280       .  A
O201        C207   1.272       .  A
C202       C3931   1.480       .  S
C203       C3899   1.487       .  S
C204       C3909   1.487       .  S
C205       C3843   1.475       .  S
C206       C3821   1.480       .  S
C207       C3865   1.489       .  S
C208       C3789   1.569       .  S
C208       C3799   1.558       .  S
C208       C3887   1.562       .  S
C208       C4053   1.558       .  S
C209       C3745   1.561       .  S
C209       C3767   1.549       .  S
C209       C3997   1.558       .  S
C209       C4173   1.552       .  S
C210       C3667   1.566       .  S
C210       C3689   1.569       .  S
C210       C3711   1.562       .  S
C210       C3921   1.568       .  S
C211       C3635   1.566       .  S
C211       C3645   1.556       .  S
C211       C4129   1.562       .  S
C211       C4471   1.559       .  S
C212       C3569   1.556       .  S
C212       C3579   1.563       .  S
C212       C3613   1.555       .  S
C212       C4427   1.560       .  S
C213       C3491   1.559       .  S
C213       C3513   1.554       .  S
C213       C3535   1.561       .  S
C213       C4899   1.554       .  S
Zn214       O218   1.976       .  S
Zn214       O219   2.020       .  S
Zn214       O223   2.045       .  S
Zn214       O230   2.039   1_545  S
Zn215       O218   1.990   1_655  S
Zn215       O220   2.037       .  S
Zn215       O222   2.037   1_655  S
Zn215       O226   2.066       .  S
Zn216       O218   1.955   1_655  S
Zn216       O221   2.027   1_655  S
Zn216       O224   2.008       .  S
Zn216       O227   2.038   1_545  S
Zn217       O218   1.947   1_665  S
Zn217       O225   2.022       .  S
Zn217       O228   2.004       .  S
Zn217       O229   2.000   1_655  S
O219        C231   1.275       .  A
O220        C232   1.275       .  A
O221        C233   1.276       .  A
O222        C231   1.276       .  A
O223        C233   1.277       .  A
O224        C232   1.273       .  A
O225        C234   1.273       .  A
O226        C235   1.278   1_545  A
O227        C234   1.276       .  A
O228        C235   1.273       .  A
O229        C236   1.273       .  A
O230        C236   1.275       .  A
C231       C3591   1.474       .  S
C232       C3733   1.468       .  S
C233       C3623   1.488       .  S
C234       C3777   1.489       .  S
C235       C3701   1.486       .  S
C236       C3547   1.485       .  S
Zn237       O241   1.938       .  S
Zn237       O242   2.041       .  S
Zn237       O246   2.001       .  S
Zn237       O253   2.037       .  S
Zn238       O241   1.923       .  S
Zn238       O243   2.016       .  S
Zn238       O245   2.003       .  S
Zn238       O249   2.013       .  S
Zn239       O241   1.950       .  S
Zn239       O244   2.051       .  S
Zn239       O247   2.018       .  S
Zn239       O250   2.055       .  S
Zn240       O241   1.926       .  S
Zn240       O248   1.998       .  S
Zn240       O251   2.027       .  S
Zn240       O252   2.009       .  S
O242        C254   1.277       .  A
O243        C255   1.275       .  A
O244        C256   1.278       .  A
O245        C254   1.272       .  A
O246        C256   1.273       .  A
O247        C255   1.275       .  A
O248        C257   1.275       .  A
O249        C258   1.275       .  A
O250        C257   1.280       .  A
O251        C258   1.275       .  A
O252        C259   1.273       .  A
O253        C259   1.275       .  A
C254       C3469   1.469       .  S
C255       C3755   1.471       .  S
C256       C3437   1.471       .  S
C257       C3381   1.486       .  S
C258       C3403   1.481       .  S
C259       C3447   1.468       .  S
Zn260       O264   1.958   1_655  S
Zn260       O265   2.039       .  S
Zn260       O269   2.073       .  S
Zn260       O276   2.030   1_655  S
Zn261       O264   1.929   1_655  S
Zn261       O266   2.003       .  S
Zn261       O268   2.011       .  S
Zn261       O272   2.039   1_655  S
Zn262       O264   1.940   1_655  S
Zn262       O267   1.982       .  S
Zn262       O270   2.043       .  S
Zn262       O273   2.039   1_655  S
Zn263       O264   1.928       .  S
Zn263       O271   1.990       .  S
Zn263       O274   2.016       .  S
Zn263       O275   2.014       .  S
O265        C277   1.279       .  A
O266        C278   1.274       .  A
O267        C279   1.270       .  A
O268        C277   1.276       .  A
O269        C279   1.279       .  A
O270        C278   1.279       .  A
O271        C280   1.270       .  A
O272        C281   1.276       .  A
O273        C280   1.277       .  A
O274        C281   1.274       .  A
O275        C282   1.276       .  A
O276        C282   1.277       .  A
C277       C3293   1.486       .  S
C278       C3371   1.483       .  S
C279       C3679   1.477       .  S
C280       C3525   1.466       .  S
C281       C3349   1.485       .  S
C282       C3327   1.484       .  S
C283       C3249   1.557       .  S
C283       C3271   1.552       .  S
C283       C3337   1.558       .  S
C283       C4965   1.553       .  S
C284       C3227   1.555       .  S
C284       C4195   1.553       .  S
C284       C4371   1.554       .  S
C284       C4691   1.559       .  S
C285       C3183   1.558       .  S
C285       C3205   1.561       .  S
C285       C3359   1.561       .  S
C285       C3855   1.551       .  S
C286       C3161   1.563       .  S
C286       C3481   1.561       .  S
C286       C4163   1.571       .  S
C286       C4239   1.562       .  S
C287       C3095   1.561       .  S
C287       C3117   1.556       .  S
C287       C3139   1.556       .  S
C287       C3425   1.562       .  S
C288       C3063   1.555       .  S
C288       C3073   1.552       .  S
C288       C4713   1.559       .  S
C288       C4933   1.557       .  S
Zn289       O293   1.950       .  S
Zn289       O294   2.002       .  S
Zn289       O298   2.041       .  S
Zn289       O305   1.987       .  S
Zn290       O293   1.961   1_455  S
Zn290       O295   2.026       .  S
Zn290       O297   2.026   1_455  S
Zn290       O301   2.006       .  S
Zn291       O293   1.936   1_455  S
Zn291       O296   2.007   1_455  S
Zn291       O299   2.010       .  S
Zn291       O302   1.977       .  S
Zn292       O293   1.999   1_455  S
Zn292       O300   2.060       .  S
Zn292       O303   2.051       .  S
Zn292       O304   2.072   1_455  S
O294        C306   1.273       .  A
O295        C307   1.274       .  A
O296        C308   1.273       .  A
O297        C306   1.274       .  A
O298        C308   1.274       .  A
O299        C307   1.273       .  A
O300        C309   1.277       .  A
O301        C310   1.274       .  A
O302        C309   1.270       .  A
O303        C310   1.278       .  A
O304        C311   1.280       .  A
O305        C311   1.272       .  A
C306       C3173   1.477       .  S
C307       C3051   1.479       .  S
C308       C3217   1.486       .  S
C309       C3261   1.476       .  S
C310       C3239   1.488       .  S
C311       C3129   1.491       .  S
C312       C3019   1.570       .  S
C312       C3029   1.558       .  S
C312       C4273   1.563       .  S
C312       C4581   1.559       .  S
C313       C2975   1.570       .  S
C313       C2985   1.564       .  S
C313       C4305   1.563       .  S
C313       C4801   1.568       .  S
C314       C2875   1.556       .  S
C314       C2897   1.561       .  S
C314       C2931   1.557       .  S
C314       C2953   1.556       .  S
C315       C2787   1.557       .  S
C315       C2809   1.555       .  S
C315       C2831   1.560       .  S
C315       C2865   1.553       .  S
C316       C2721   1.559       .  S
C316       C2743   1.560       .  S
C316       C2765   1.553       .  S
C316       C4845   1.561       .  S
C317       C2677   1.562       .  S
C317       C2699   1.558       .  S
C317       C4559   1.567       .  S
C317       C4635   1.559       .  S
Zn318       O322   1.966       .  S
Zn318       O323   2.021       .  S
Zn318       O327   2.033       .  S
Zn318       O334   2.024       .  S
Zn319       O322   1.998   1_554  S
Zn319       O324   2.080       .  S
Zn319       O326   2.062   1_554  S
Zn319       O330   2.055       .  S
Zn320       O322   1.949   1_554  S
Zn320       O325   2.017   1_554  S
Zn320       O328   1.984       .  S
Zn320       O331   2.017       .  S
Zn321       O322   1.975       .  S
Zn321       O329   2.051   1_556  S
Zn321       O332   2.030   1_556  S
Zn321       O333   2.033       .  S
O323        C335   1.274       .  A
O324        C336   1.280       .  A
O325        C337   1.273       .  A
O326        C335   1.279       .  A
O327        C337   1.275       .  A
O328        C336   1.272       .  A
O329        C338   1.276       .  A
O330        C339   1.278       .  A
O331        C338   1.273       .  A
O332        C339   1.276       .  A
O333        C340   1.276       .  A
O334        C340   1.276       .  A
C335       C2843   1.489       .  S
C336       C2711   1.493       .  S
C337       C2919   1.487       .  S
C338       C3007   1.492       .  S
C339       C2963   1.481       .  S
C340       C2755   1.483       .  S
Zn341       O345   1.962       .  S
Zn341       O346   2.035       .  S
Zn341       O350   2.057       .  S
Zn341       O357   2.036       .  S
Zn342       O345   1.940       .  S
Zn342       O347   2.000       .  S
Zn342       O349   2.017       .  S
Zn342       O353   2.021       .  S
Zn343       O345   1.959       .  S
Zn343       O348   2.002       .  S
Zn343       O351   2.042       .  S
Zn343       O354   2.065       .  S
Zn344       O345   1.931       .  S
Zn344       O352   1.983       .  S
Zn344       O355   2.034       .  S
Zn344       O356   2.027       .  S
O346        C358   1.276       .  A
O347        C359   1.274       .  A
O348        C360   1.272       .  A
O349        C358   1.275       .  A
O350        C360   1.277       .  A
O351        C359   1.279       .  A
O352        C361   1.272       .  A
O353        C362   1.271       .  A
O354        C361   1.279       .  A
O355        C362   1.274       .  A
O356        C363   1.278       .  A
O357        C363   1.278       .  A
C358       C3283   1.469       .  S
C359       C2655   1.481       .  S
C360       C2821   1.475       .  S
C361       C2909   1.484       .  S
C362       C2633   1.474       .  S
C363       C2623   1.488       .  S
C364       C2567   1.563       .  S
C364       C2589   1.568       .  S
C364       C3833   1.560       .  S
C364       C4295   1.562       .  S
C365       C2501   1.558       .  S
C365       C2523   1.557       .  S
C365       C2545   1.552       .  S
C365       C3459   1.561       .  S
C366       C2457   1.557       .  S
C366       C2479   1.554       .  S
C366       C2667   1.555       .  S
C366       C4955   1.556       .  S
C367       C2425   1.555       .  S
C367       C2447   1.555       .  S
C367       C4625   1.552       .  S
C367       C4999   1.557       .  S
C368       C2403   1.559       .  S
C368       C3415   1.557       .  S
C368       C4339   1.555       .  S
C368       C4515   1.553       .  S
C369       C2347   1.562       .  S
C369       C2369   1.563       .  S
C369       C2645   1.560       .  S
C369       C4349   1.554       .  S
Zn370       O374   1.965       .  S
Zn370       O375   2.018       .  S
Zn370       O379   2.021       .  S
Zn370       O386   2.033       .  S
Zn371       O374   1.998       .  S
Zn371       O376   2.054       .  S
Zn371       O378   2.064       .  S
Zn371       O382   2.059       .  S
Zn372       O374   1.957       .  S
Zn372       O377   2.009       .  S
Zn372       O380   1.991       .  S
Zn372       O383   2.039       .  S
Zn373       O374   1.943       .  S
Zn373       O381   2.021       .  S
Zn373       O384   1.985       .  S
Zn373       O385   2.014       .  S
O375        C387   1.275       .  A
O376        C388   1.277       .  A
O377        C389   1.273       .  A
O378        C387   1.279       .  A
O379        C389   1.273       .  A
O380        C388   1.272       .  A
O381        C390   1.274       .  A
O382        C391   1.277       .  A
O383        C390   1.275       .  A
O384        C391   1.271       .  A
O385        C392   1.274       .  A
O386        C392   1.275       .  A
C387       C2601   1.483       .  S
C388       C2469   1.479       .  S
C389       C2435   1.475       .  S
C390       C2381   1.488       .  S
C391       C2535   1.487       .  S
C392       C2391   1.479       .  S
Zn393       O397   1.933       .  S
Zn393       O398   2.026       .  S
Zn393       O402   2.029       .  S
Zn393       O409   1.999       .  S
Zn394       O397   1.955       .  S
Zn394       O399   2.034       .  S
Zn394       O401   2.030       .  S
Zn394       O405   2.052       .  S
Zn395       O397   1.927       .  S
Zn395       O400   2.023       .  S
Zn395       O403   2.003       .  S
Zn395       O406   2.010       .  S
Zn396       O397   1.947       .  S
Zn396       O404   2.024       .  S
Zn396       O407   2.003       .  S
Zn396       O408   2.031       .  S
O398        C410   1.277       .  A
O399        C411   1.276       .  A
O400        C412   1.274       .  A
O401        C410   1.277       .  A
O402        C412   1.275       .  A
O403        C411   1.274       .  A
O404        C413   1.275       .  A
O405        C414   1.277       .  A
O406        C413   1.274       .  A
O407        C414   1.272       .  A
O408        C415   1.275       .  A
O409        C415   1.272       .  A
C410       C2491   1.487       .  S
C411       C2281   1.472       .  S
C412       C2303   1.485       .  S
C413       C2325   1.479       .  S
C414       C2733   1.477       .  S
C415       C2799   1.463       .  S
Zn416       O420   1.910       .  S
Zn416       O421   2.003       .  S
Zn416       O425   2.019       .  S
Zn416       O432   2.012   1_545  S
Zn417       O420   1.958       .  S
Zn417       O422   2.073       .  S
Zn417       O424   2.057       .  S
Zn417       O428   2.046       .  S
Zn418       O420   1.926       .  S
Zn418       O423   2.035       .  S
Zn418       O426   1.982       .  S
Zn418       O429   2.015   1_545  S
Zn419       O420   1.938   1_565  S
Zn419       O427   2.026       .  S
Zn419       O430   2.029       .  S
Zn419       O431   2.034       .  S
O421        C433   1.274       .  A
O422        C434   1.281       .  A
O423        C435   1.275       .  A
O424        C433   1.279       .  A
O425        C435   1.274       .  A
O426        C434   1.272       .  A
O427        C436   1.276       .  A
O428        C437   1.279   1_545  A
O429        C436   1.275       .  A
O430        C437   1.278       .  A
O431        C438   1.276       .  A
O432        C438   1.275       .  A
C433       C3657   1.475       .  S
C434       C2205   1.489       .  S
C435       C2259   1.473       .  S
C436       C2249   1.482       .  S
C437       C2183   1.483       .  S
C438       C2215   1.485       .  S
Zn439       O443   1.931       .  S
Zn439       O444   2.023       .  S
Zn439       O448   2.002       .  S
Zn439       O455   2.032       .  S
Zn440       O443   1.956   1_554  S
Zn440       O445   2.056       .  S
Zn440       O447   2.021   1_554  S
Zn440       O451   2.036       .  S
Zn441       O443   1.936   1_554  S
Zn441       O446   2.036   1_554  S
Zn441       O449   1.984       .  S
Zn441       O452   2.030       .  S
Zn442       O443   1.929   1_554  S
Zn442       O450   2.015       .  S
Zn442       O453   2.009       .  S
Zn442       O454   2.018   1_554  S
O444        C456   1.276       .  A
O445        C457   1.276       .  A
O446        C458   1.276       .  A
O447        C456   1.276       .  A
O448        C458   1.272       .  A
O449        C457   1.271       .  A
O450        C459   1.274       .  A
O451        C460   1.277       .  A
O452        C459   1.276       .  A
O453        C460   1.275       .  A
O454        C461   1.274       .  A
O455        C461   1.276       .  A
C456       C2853   1.484       .  S
C457       C2083   1.471       .  S
C458       C2127   1.465       .  S
C459       C2149   1.482       .  S
C460       C2061   1.471       .  S
C461       C2105   1.485       .  S
C462       C2017   1.559       .  S
C462       C2051   1.553       .  S
C462       C2139   1.556       .  S
C462       C2315   1.558       .  S
C463       C1973   1.552       .  S
C463       C1995   1.556       .  S
C463       C2337   1.557       .  S
C463       C4767   1.546       .  S
C464       C1941   1.550       .  S
C464       C1951   1.550       .  S
C464       C2095   1.554       .  S
C464       C2237   1.558       .  S
C465       C1885   1.552       .  S
C465       C1907   1.556       .  S
C465       C2193   1.555       .  S
C465       C4603   1.559       .  S
C466       C1797   1.558       .  S
C466       C1819   1.560       .  S
C466       C1853   1.559       .  S
C466       C1863   1.555       .  S
C467       C1753   1.557       .  S
C467       C1775   1.563       .  S
C467       C3987   1.553       .  S
C467       C4525   1.561       .  S
Zn468       O472   1.958       .  S
Zn468       O473   2.026   1_545  S
Zn468       O477   1.986   1_545  S
Zn468       O484   2.027       .  S
Zn469       O472   1.948       .  S
Zn469       O474   1.994   1_546  S
Zn469       O476   2.017   1_545  S
Zn469       O480   2.002   1_556  S
Zn470       O472   1.989   1_564  S
Zn470       O475   2.032   1_554  S
Zn470       O478   2.033       .  S
Zn470       O481   2.045   1_565  S
Zn471       O472   1.949   1_554  S
Zn471       O479   2.010       .  S
Zn471       O482   2.026       .  S
Zn471       O483   2.008   1_554  S
O473        C485   1.273       .  A
O474        C486   1.273       .  A
O475        C487   1.274       .  A
O476        C485   1.272       .  A
O477        C487   1.271       .  A
O478        C486   1.276       .  A
O479        C488   1.273       .  A
O480        C489   1.273       .  A
O481        C488   1.274       .  A
O482        C489   1.275       .  A
O483        C490   1.273       .  A
O484        C490   1.275       .  A
C485       C2029   1.480       .  S
C486       C1929   1.482       .  S
C487       C2007   1.463       .  S
C488       C1787   1.475       .  S
C489       C1897   1.480       .  S
C490       C1841   1.479       .  S
Zn491       O495   1.916   1_655  S
Zn491       O496   2.005       .  S
Zn491       O500   2.006   1_655  S
Zn491       O507   1.997       .  S
Zn492       O495   1.937   1_655  S
Zn492       O497   2.033   1_655  S
Zn492       O499   2.028       .  S
Zn492       O503   1.964       .  S
Zn493       O495   1.938       .  S
Zn493       O498   2.048       .  S
Zn493       O501   2.007       .  S
Zn493       O504   2.017       .  S
Zn494       O495   1.972   1_655  S
Zn494       O502   2.039   1_655  S
Zn494       O505   2.085       .  S
Zn494       O506   2.071       .  S
O496        C508   1.272       .  A
O497        C509   1.275       .  A
O498        C510   1.277       .  A
O499        C508   1.275       .  A
O500        C510   1.274       .  A
O501        C509   1.272       .  A
O502        C511   1.278       .  A
O503        C512   1.270       .  A
O504        C511   1.277       .  A
O505        C512   1.282       .  A
O506        C513   1.281       .  A
O507        C513   1.275       .  A
C508       C1721   1.479       .  S
C509       C1743   1.466       .  S
C510       C1677   1.488       .  S
C511       C3085   1.485       .  S
C512       C1687   1.489       .  S
C513       C3811   1.491       .  S
Zn514       O518   1.971   1_554  S
Zn514       O519   2.075       .  S
Zn514       O523   2.031   1_554  S
Zn514       O530   2.070       .  S
Zn515       O518   1.914   1_554  S
Zn515       O520   2.014   1_554  S
Zn515       O522   1.991       .  S
Zn515       O526   1.996       .  S
Zn516       O518   1.919       .  S
Zn516       O521   2.008       .  S
Zn516       O524   2.036       .  S
Zn516       O527   2.018       .  S
Zn517       O518   1.935   1_554  S
Zn517       O525   2.050   1_554  S
Zn517       O528   2.033       .  S
Zn517       O529   1.979       .  S
O519        C531   1.281       .  A
O520        C532   1.274       .  A
O521        C533   1.276       .  A
O522        C531   1.274       .  A
O523        C533   1.277       .  A
O524        C532   1.276       .  A
O525        C534   1.277       .  A
O526        C535   1.273       .  A
O527        C534   1.274       .  A
O528        C535   1.276       .  A
O529        C536   1.272       .  A
O530        C536   1.280       .  A
C531       C3041   1.491       .  S
C532       C1831   1.483       .  S
C533       C1611   1.472       .  S
C534       C1655   1.477       .  S
C535       C1765   1.481       .  S
C536       C1621   1.485       .  S
Zn537       O541   1.931       .  S
Zn537       O542   2.032       .  S
Zn537       O546   1.991       .  S
Zn537       O553   2.040   1_545  S
Zn538       O541   1.905       .  S
Zn538       O543   2.010       .  S
Zn538       O545   1.988       .  S
Zn538       O549   2.002   1_545  S
Zn539       O541   1.950       .  S
Zn539       O544   2.080       .  S
Zn539       O547   2.058       .  S
Zn539       O550   2.042   1_545  S
Zn540       O541   1.925   1_565  S
Zn540       O548   2.013       .  S
Zn540       O551   2.048       .  S
Zn540       O552   2.008       .  S
O542        C554   1.277       .  A
O543        C555   1.275       .  A
O544        C556   1.281       .  A
O545        C554   1.272       .  A
O546        C556   1.273       .  A
O547        C555   1.279       .  A
O548        C557   1.277       .  A
O549        C558   1.274       .  A
O550        C557   1.280       .  A
O551        C558   1.277       .  A
O552        C559   1.274       .  A
O553        C559   1.276       .  A
C554       C3557   1.480       .  S
C555       C1545   1.477       .  S
C556       C1555   1.492       .  S
C557       C2039   1.485       .  S
C558       C3503   1.485       .  S
C559       C1577   1.470       .  S
C560       C1479   1.560       .  S
C560       C1501   1.555       .  S
C560       C1511   1.558       .  S
C560       C1567   1.560       .  S
C561       C1457   1.561       .  S
C561       C1665   1.566       .  S
C561       C2161   1.559       .  S
C561       C2171   1.559       .  S
C562       C1423   1.556       .  S
C562       C1633   1.553       .  S
C562       C4063   1.556       .  S
C562       C4119   1.547       .  S
C563       C1413   1.564       .  S
C563       C1709   1.558       .  S
C563       C4031   1.563       .  S
C563       C4757   1.560       .  S
C564       C1379   1.557       .  S
C564       C1589   1.556       .  S
C564       C2117   1.560       .  S
C564       C3315   1.552       .  S
C565       C1325   1.565       .  S
C565       C1335   1.559       .  S
C565       C1357   1.555       .  S
C565       C1643   1.561       .  S
Zn566       O570   1.944   1_466  S
Zn566       O571   1.981       .  S
Zn566       O575   1.992   1_556  S
Zn566       O582   2.007   1_565  S
Zn567       O570   1.989   1_566  S
Zn567       O572   2.062       .  S
Zn567       O574   2.069       .  S
Zn567       O578   2.051   1_565  S
Zn568       O570   1.956       .  S
Zn568       O573   2.036   1_645  S
Zn568       O576   2.007   1_545  S
Zn568       O579   2.006       .  S
Zn569       O570   1.965   1_556  S
Zn569       O577   2.033   1_556  S
Zn569       O580   2.025       .  S
Zn569       O581   2.028   1_655  S
O571        C583   1.270       .  A
O572        C584   1.278   1_556  A
O573        C585   1.274       .  A
O574        C583   1.279   1_655  A
O575        C585   1.270       .  A
O576        C584   1.273       .  A
O577        C586   1.275       .  A
O578        C587   1.278       .  A
O579        C586   1.274       .  A
O580        C587   1.276       .  A
O581        C588   1.274       .  A
O582        C588   1.272       .  A
C583       C1391   1.477       .  S
C584       C1401   1.476       .  S
C585       C1445   1.482       .  S
C586       C1435   1.480       .  S
C587       C1347   1.482       .  S
C588       C1489   1.483       .  S
Zn589       O593   1.941   1_556  S
Zn589       O594   2.009       .  S
Zn589       O598   2.008       .  S
Zn589       O605   2.009   1_556  S
Zn590       O593   1.989   1_556  S
Zn590       O595   2.093       .  S
Zn590       O597   2.059       .  S
Zn590       O601   2.037   1_556  S
Zn591       O593   1.954   1_556  S
Zn591       O596   2.034       .  S
Zn591       O599   1.967       .  S
Zn591       O602   2.044   1_556  S
Zn592       O593   1.951       .  S
Zn592       O600   2.004       .  S
Zn592       O603   2.010       .  S
Zn592       O604   2.027       .  S
O594        C606   1.275       .  A
O595        C607   1.281       .  A
O596        C608   1.276       .  A
O597        C606   1.279       .  A
O598        C608   1.273       .  A
O599        C607   1.270       .  A
O600        C609   1.272       .  A
O601        C610   1.276       .  A
O602        C609   1.275       .  A
O603        C610   1.274       .  A
O604        C611   1.275       .  A
O605        C611   1.274       .  A
C606       C1523   1.486       .  S
C607       C2887   1.488       .  S
C608       C1303   1.482       .  S
C609       C2689   1.485       .  S
C610       C1919   1.470       .  S
C611       C1281   1.485       .  S
Zn612       O616   1.925       .  S
Zn612       O617   1.996       .  S
Zn612       O621   1.994       .  S
Zn612       O628   2.015       .  S
Zn613       O616   1.955       .  S
Zn613       O618   2.064       .  S
Zn613       O620   2.046       .  S
Zn613       O624   2.028       .  S
Zn614       O616   1.938       .  S
Zn614       O619   2.044       .  S
Zn614       O622   1.975       .  S
Zn614       O625   2.048       .  S
Zn615       O616   1.930       .  S
Zn615       O623   1.996       .  S
Zn615       O626   2.029       .  S
Zn615       O627   2.023       .  S
O617        C629   1.273       .  A
O618        C630   1.278       .  A
O619        C631   1.278       .  A
O620        C629   1.278       .  A
O621        C631   1.272       .  A
O622        C630   1.270       .  A
O623        C632   1.274       .  A
O624        C633   1.278       .  A
O625        C632   1.279       .  A
O626        C633   1.278       .  A
O627        C634   1.274       .  A
O628        C634   1.272       .  A
C629       C2777   1.469       .  S
C630       C3195   1.488       .  S
C631       C1247   1.477       .  S
C632       C3107   1.480       .  S
C633       C2557   1.482       .  S
C634       C1225   1.477       .  S
Zn635       O639   1.946       .  S
Zn635       O640   2.007       .  S
Zn635       O644   2.012       .  S
Zn635       O651   2.039   1_655  S
Zn636       O639   1.961       .  S
Zn636       O641   2.006       .  S
Zn636       O643   2.038       .  S
Zn636       O647   2.056   1_655  S
Zn637       O639   1.969       .  S
Zn637       O642   2.051       .  S
Zn637       O645   2.061       .  S
Zn637       O648   2.043   1_655  S
Zn638       O639   1.936   1_455  S
Zn638       O646   2.019       .  S
Zn638       O649   1.989       .  S
Zn638       O650   2.015       .  S
O640        C652   1.273       .  A
O641        C653   1.273       .  A
O642        C654   1.279       .  A
O643        C652   1.276       .  A
O644        C654   1.276       .  A
O645        C653   1.278       .  A
O646        C655   1.276       .  A
O647        C656   1.278       .  A
O648        C655   1.278       .  A
O649        C656   1.271       .  A
O650        C657   1.273       .  A
O651        C657   1.275       .  A
C652       C1215   1.467       .  S
C653       C1313   1.478       .  S
C654       C3151   1.488       .  S
C655       C3601   1.488       .  S
C656       C1467   1.486       .  S
C657       C1193   1.484       .  S
C658       C1171   1.553       .  S
C658       C1203   1.559       .  S
C658       C1237   1.558       .  S
C658       C1599   1.553       .  S
C659       C1149   1.561       .  S
C659       C1181   1.561       .  S
C659       C1291   1.558       .  S
C659       C2611   1.554       .  S
C660       C1115   1.559       .  S
C660       C1259   1.556       .  S
C660       C3305   1.552       .  S
C660       C4811   1.557       .  S
C661       C1105   1.551       .  S
C661       C1269   1.554       .  S
C661       C4097   1.551       .  S
C661       C4723   1.553       .  S
C662       C1071   1.556       .  S
C662       C1699   1.553       .  S
C662       C4229   1.547       .  S
C662       C4855   1.559       .  S
C663       C1049   1.559       .  S
C663       C1731   1.556       .  S
C663       C2073   1.553       .  S
C663       C4657   1.558       .  S
Zn664       O668   1.960   1_655  S
Zn664       O669   2.026   1_655  S
Zn664       O673   1.998       .  S
Zn664       O680   2.037   1_554  S
Zn665       O668   1.955       .  S
Zn665       O670   1.991       .  S
Zn665       O672   2.022       .  S
Zn665       O676   2.042   1_554  S
Zn666       O668   2.006   1_655  S
Zn666       O671   2.066       .  S
Zn666       O674   2.067   1_655  S
Zn666       O677   2.083       .  S
Zn667       O668   1.934   1_656  S
Zn667       O675   1.976       .  S
Zn667       O678   2.002   1_655  S
Zn667       O679   1.997       .  S
O669        C681   1.275       .  A
O670        C682   1.273       .  A
O671        C683   1.279       .  A
O672        C681   1.274       .  A
O673        C683   1.274       .  A
O674        C682   1.279       .  A
O675        C684   1.270       .  A
O676        C685   1.275       .  A
O677        C684   1.280   1_554  A
O678        C685   1.272       .  A
O679        C686   1.272       .  A
O680        C686   1.274       .  A
C681       C1061   1.480       .  S
C682       C1093   1.487       .  S
C683       C1083   1.478       .  S
C684       C1159   1.491       .  S
C685       C1137   1.483       .  S
C686       C1127   1.485       .  S
Zn687       O691   1.915       .  S
Zn687       O692   1.988       .  S
Zn687       O696   1.991       .  S
Zn687       O703   2.003       .  S
Zn688       O691   1.934       .  S
Zn688       O693   1.987       .  S
Zn688       O695   2.042       .  S
Zn688       O699   2.042       .  S
Zn689       O691   1.955       .  S
Zn689       O694   2.050       .  S
Zn689       O697   2.069       .  S
Zn689       O700   2.023       .  S
Zn690       O691   1.934       .  S
Zn690       O698   2.032       .  S
Zn690       O701   1.997       .  S
Zn690       O702   2.042       .  S
O692        C704   1.272       .  A
O693        C705   1.272       .  A
O694        C706   1.280       .  A
O695        C704   1.277       .  A
O696        C706   1.274       .  A
O697        C705   1.279       .  A
O698        C707   1.278       .  A
O699        C708   1.278       .  A
O700        C707   1.276       .  A
O701        C708   1.272       .  A
O702        C709   1.276       .  A
O703        C709   1.272       .  A
C704       C1027   1.475       .  S
C705       C2413   1.490       .  S
C706       C1963   1.482       .  S
C707       C2997   1.480       .  S
C708       C2579   1.466       .  S
C709       C1005   1.488       .  S
Zn710       O714   1.973       .  S
Zn710       O715   2.055       .  S
Zn710       O719   2.042       .  S
Zn710       O726   2.065       .  S
Zn711       O714   1.932       .  S
Zn711       O716   2.036       .  S
Zn711       O718   1.996       .  S
Zn711       O722   1.995       .  S
Zn712       O714   1.931       .  S
Zn712       O717   2.014       .  S
Zn712       O720   2.013       .  S
Zn712       O723   1.988       .  S
Zn713       O714   1.965       .  S
Zn713       O721   2.060       .  S
Zn713       O724   2.055       .  S
Zn713       O725   2.006       .  S
O715        C727   1.278       .  A
O716        C728   1.275       .  A
O717        C729   1.276       .  A
O718        C727   1.275       .  A
O719        C729   1.278       .  A
O720        C728   1.273       .  A
O721        C730   1.280       .  A
O722        C731   1.272       .  A
O723        C730   1.271       .  A
O724        C731   1.278       .  A
O725        C732   1.273       .  A
O726        C732   1.280       .  A
C727       C2941   1.484       .  S
C728       C2513   1.483       .  S
C729       C1875   1.488       .  S
C730        C995   1.487       .  S
C731       C2359   1.484       .  S
C732        C961   1.477       .  S
Zn733       O737   1.980   1_565  S
Zn733       O738   2.066       .  S
Zn733       O742   2.098       .  S
Zn733       O749   2.058   1_565  S
Zn734       O737   1.920   1_565  S
Zn734       O739   2.008       .  S
Zn734       O741   1.995       .  S
Zn734       O745   2.029   1_565  S
Zn735       O737   1.935   1_565  S
Zn735       O740   1.956       .  S
Zn735       O743   2.033       .  S
Zn735       O746   2.037   1_565  S
Zn736       O737   1.919       .  S
Zn736       O744   2.005       .  S
Zn736       O747   2.030       .  S
Zn736       O748   2.010       .  S
O738        C750   1.281       .  A
O739        C751   1.274       .  A
O740        C752   1.270       .  A
O741        C750   1.275       .  A
O742        C752   1.283       .  A
O743        C751   1.275       .  A
O744        C753   1.271       .  A
O745        C754   1.275       .  A
O746        C753   1.275       .  A
O747        C754   1.276       .  A
O748        C755   1.277       .  A
O749        C755   1.280       .  A
C750       C3723   1.488       .  S
C751        C951   1.483       .  S
C752       C1985   1.488       .  S
C753       C1809   1.468       .  S
C754        C929   1.483       .  S
C755       C1369   1.489       .  S
C756        C895   1.559       .  S
C756        C973   1.561       .  S
C756       C1533   1.554       .  S
C756       C4449   1.557       .  S
C757        C873   1.556       .  S
C757        C939   1.558       .  S
C757       C2293   1.550       .  S
C757       C3877   1.556       .  S
C758        C863   1.553       .  S
C758        C917   1.562       .  S
C758        C983   1.562       .  S
C758       C3393   1.555       .  S
C759        C829   1.559       .  S
C759       C1039   1.556       .  S
C759       C2227   1.559       .  S
C759       C4889   1.554       .  S
C760        C807   1.556       .  S
C760       C1017   1.569       .  S
C760       C3943   1.578       .  S
C760       C3953   1.578       .  S
C761        C785   1.556       .  S
C761       C2271   1.562       .  S
C761       C4405   1.566       .  S
C761       C4481   1.554       .  S
Zn762       O766   1.956       .  S
Zn762       O767   1.996       .  S
Zn762       O771   2.027       .  S
Zn762       O778   2.028   1_545  S
Zn763       O766   2.005       .  S
Zn763       O768   2.066       .  S
Zn763       O770   2.059       .  S
Zn763       O774   2.072       .  S
Zn764       O766   1.943       .  S
Zn764       O769   2.017       .  S
Zn764       O772   1.974       .  S
Zn764       O775   2.016   1_545  S
Zn765       O766   1.946   1_565  S
Zn765       O773   2.012       .  S
Zn765       O776   1.985       .  S
Zn765       O777   2.005       .  S
O767        C779   1.274       .  A
O768        C780   1.278       .  A
O769        C781   1.273       .  A
O770        C779   1.279       .  A
O771        C781   1.274       .  A
O772        C780   1.270       .  A
O773        C782   1.272       .  A
O774        C783   1.279   1_545  A
O775        C782   1.274       .  A
O776        C783   1.272       .  A
O777        C784   1.273       .  A
O778        C784   1.274       .  A
C779        C797   1.488       .  S
C780        C851   1.487       .  S
C781        C907   1.481       .  S
C782        C885   1.480       .  S
C783        C819   1.489       .  S
C784        C841   1.483       .  S
C785        C786   1.412       .  A
C785        C790   1.407       .  A
C786        C787   1.403       .  A
C786        H799   1.079       .  S
C787        C788   1.414       .  A
C787        H800   1.078       .  S
C788        C794   1.434       .  A
C788        C789   1.421       .  A
C789        C791   1.397       .  A
C789        C790   1.400       .  A
C790        H801   1.085       .  S
C791        C792   1.385       .  A
C791        H802   1.084       .  S
C792        C793   1.398       .  A
C792        H803   1.084       .  S
C793        C794   1.421       .  A
C793        C798   1.399       .  A
C794        C795   1.418       .  A
C795        C796   1.406       .  A
C795        H804   1.078       .  S
C796        C797   1.403       .  A
C796        H805   1.083       .  S
C797        C798   1.402       .  A
C798        H806   1.084       .  S
C807        C808   1.408       .  A
C807        C812   1.413       .  A
C808        C809   1.391       .  A
C808        H821   1.082       .  S
C809        C810   1.411       .  A
C809        H822   1.076       .  S
C810        C816   1.431       .  A
C810        C811   1.420       .  A
C811        C813   1.402       .  A
C811        C812   1.412       .  A
C812        H823   1.080       .  S
C813        C814   1.395       .  A
C813        H824   1.084       .  S
C814        C815   1.401       .  A
C814        H825   1.084       .  S
C815        C816   1.423       .  A
C815        C820   1.414       .  A
C816        C817   1.411       .  A
C817        C818   1.391       .  A
C817        H826   1.076       .  S
C818        C819   1.404       .  A
C818        H827   1.083       .  S
C819        C820   1.405       .  A
C820        H828   1.084       .  S
C829        C830   1.409       .  A
C829        C834   1.412       .  A
C830        C831   1.402       .  A
C830        H843   1.083       .  S
C831        C832   1.414       .  A
C831        H844   1.078       .  S
C832        C838   1.431       .  A
C832        C833   1.418       .  A
C833        C835   1.399       .  A
C833        C834   1.399       .  A
C834        H845   1.081       .  S
C835        C836   1.386       .  A
C835        H846   1.084       .  S
C836        C837   1.398       .  A
C836        H847   1.084       .  S
C837        C838   1.422       .  A
C837        C842   1.401       .  A
C838        C839   1.415       .  A
C839        C840   1.401       .  A
C839        H848   1.078       .  S
C840        C841   1.403       .  A
C840        H849   1.083       .  S
C841        C842   1.401       .  A
C842        H850   1.085       .  S
C851        C852   1.402       .  A
C851        C856   1.403       .  A
C852        C853   1.405       .  A
C852        H865   1.083       .  S
C853        C854   1.419       .  A
C853        H866   1.078       .  S
C854        C860   1.433       .  A
C854        C855   1.421       .  A
C855        C857   1.398       .  A
C855        C856   1.398       .  A
C856        H867   1.084       .  S
C857        C858   1.384       .  A
C857        H868   1.084       .  S
C858        C859   1.397       .  A
C858        H869   1.084       .  S
C859        C860   1.421       .  A
C859        C864   1.398       .  A
C860        C861   1.414       .  A
C861        C862   1.403       .  A
C861        H870   1.078       .  S
C862        C863   1.410       .  A
C862        H871   1.079       .  S
C863        C864   1.408       .  A
C864        H872   1.085       .  S
C873        C874   1.412       .  A
C873        C878   1.411       .  A
C874        C875   1.389       .  A
C874        H887   1.080       .  S
C875        C876   1.407       .  A
C875        H888   1.077       .  S
C876        C882   1.427       .  A
C876        C877   1.420       .  A
C877        C879   1.401       .  A
C877        C878   1.409       .  A
C878        H889   1.084       .  S
C879        C880   1.394       .  A
C879        H890   1.084       .  S
C880        C881   1.401       .  A
C880        H891   1.084       .  S
C881        C882   1.420       .  A
C881        C886   1.408       .  A
C882        C883   1.414       .  A
C883        C884   1.393       .  A
C883        H892   1.077       .  S
C884        C885   1.400       .  A
C884        H893   1.083       .  S
C885        C886   1.404       .  A
C886        H894   1.084       .  S
C895        C896   1.412       .  A
C895        C900   1.412       .  A
C896        C897   1.395       .  A
C896        H909   1.083       .  S
C897        C898   1.410       .  A
C897        H910   1.077       .  S
C898        C904   1.432       .  A
C898        C899   1.421       .  A
C899        C901   1.400       .  A
C899        C900   1.408       .  A
C900        H911   1.079       .  S
C901        C902   1.390       .  A
C901        H912   1.084       .  S
C902        C903   1.399       .  A
C902        H913   1.084       .  S
C903        C904   1.422       .  A
C903        C908   1.405       .  A
C904        C905   1.417       .  A
C905        C906   1.399       .  A
C905        H914   1.077       .  S
C906        C907   1.400       .  A
C906        H915   1.083       .  S
C907        C908   1.402       .  A
C908        H916   1.085       .  S
C917        C918   1.411       .  A
C917        C922   1.411       .  A
C918        C919   1.400       .  A
C918        H931   1.083       .  S
C919        C920   1.413       .  A
C919        H932   1.078       .  S
C920        C926   1.435       .  A
C920        C921   1.421       .  A
C921        C923   1.400       .  A
C921        C922   1.406       .  A
C922        H933   1.079       .  S
C923        C924   1.388       .  A
C923        H934   1.084       .  S
C924        C925   1.399       .  A
C924        H935   1.084       .  S
C925        C926   1.423       .  A
C925        C930   1.405       .  A
C926        C927   1.417       .  A
C927        C928   1.403       .  A
C927        H936   1.078       .  S
C928        C929   1.401       .  A
C928        H937   1.083       .  S
C929        C930   1.401       .  A
C930        H938   1.085       .  S
C939        C940   1.412       .  A
C939        C944   1.407       .  A
C940        C941   1.396       .  A
C940        H953   1.083       .  S
C941        C942   1.411       .  A
C941        H954   1.077       .  S
C942        C948   1.431       .  A
C942        C943   1.422       .  A
C943        C945   1.398       .  A
C943        C944   1.405       .  A
C944        H955   1.080       .  S
C945        C946   1.388       .  A
C945        H956   1.084       .  S
C946        C947   1.399       .  A
C946        H957   1.084       .  S
C947        C948   1.421       .  A
C947        C952   1.401       .  A
C948        C949   1.418       .  A
C949        C950   1.401       .  A
C949        H958   1.077       .  S
C950        C951   1.402       .  A
C950        H959   1.083       .  S
C951        C952   1.402       .  A
C952        H960   1.085       .  S
C961        C962   1.399       .  A
C961        C966   1.399       .  A
C962        C963   1.405       .  A
C962        H975   1.083       .  S
C963        C964   1.419       .  A
C963        H976   1.078       .  S
C964        C970   1.436       .  A
C964        C965   1.423       .  A
C965        C967   1.399       .  A
C965        C966   1.404       .  A
C966        H977   1.085       .  S
C967        C968   1.388       .  A
C967        H978   1.084       .  S
C968        C969   1.400       .  A
C968        H979   1.084       .  S
C969        C970   1.421       .  A
C969        C974   1.405       .  A
C970        C971   1.414       .  A
C971        C972   1.403       .  A
C971        H980   1.078       .  S
C972        C973   1.410       .  A
C972        H981   1.083       .  S
C973        C974   1.411       .  A
C974        H982   1.080       .  S
C983        C984   1.408       .  A
C983        C988   1.415       .  A
C984        C985   1.399       .  A
C984        H997   1.083       .  S
C985        C986   1.415       .  A
C985        H998   1.078       .  S
C986        C992   1.432       .  A
C986        C987   1.417       .  A
C987        C989   1.401       .  A
C987        C988   1.403       .  A
C988        H999   1.081       .  S
C989        C990   1.390       .  A
C989       H1000   1.084       .  S
C990        C991   1.398       .  A
C990       H1001   1.084       .  S
C991        C992   1.425       .  A
C991        C996   1.409       .  A
C992        C993   1.411       .  A
C993        C994   1.395       .  A
C993       H1002   1.078       .  S
C994        C995   1.405       .  A
C994       H1003   1.083       .  S
C995        C996   1.401       .  A
C996       H1004   1.084       .  S
C1005      C1006   1.402       .  A
C1005      C1010   1.405       .  A
C1006      C1007   1.400       .  A
C1006      H1019   1.083       .  S
C1007      C1008   1.416       .  A
C1007      H1020   1.078       .  S
C1008      C1014   1.432       .  A
C1008      C1009   1.421       .  A
C1009      C1011   1.400       .  A
C1009      C1010   1.405       .  A
C1010      H1021   1.084       .  S
C1011      C1012   1.390       .  A
C1011      H1022   1.084       .  S
C1012      C1013   1.400       .  A
C1012      H1023   1.084       .  S
C1013      C1014   1.420       .  A
C1013      C1018   1.407       .  A
C1014      C1015   1.411       .  A
C1015      C1016   1.397       .  A
C1015      H1024   1.078       .  S
C1016      C1017   1.414       .  A
C1016      H1025   1.083       .  S
C1017      C1018   1.413       .  A
C1018      H1026   1.082       .  S
C1027      C1028   1.400       .  A
C1027      C1032   1.400       .  A
C1028      C1029   1.394       .  A
C1028      H1041   1.084       .  S
C1029      C1030   1.414       .  A
C1029      H1042   1.077       .  S
C1030      C1036   1.429       .  A
C1030      C1031   1.423       .  A
C1031      C1033   1.399       .  A
C1031      C1032   1.406       .  A
C1032      H1043   1.085       .  S
C1033      C1034   1.390       .  A
C1033      H1044   1.084       .  S
C1034      C1035   1.400       .  A
C1034      H1045   1.084       .  S
C1035      C1036   1.420       .  A
C1035      C1040   1.406       .  A
C1036      C1037   1.412       .  A
C1037      C1038   1.393       .  A
C1037      H1046   1.077       .  S
C1038      C1039   1.410       .  A
C1038      H1047   1.083       .  S
C1039      C1040   1.410       .  A
C1040      H1048   1.080       .  S
C1049      C1050   1.412       .  A
C1049      C1054   1.412       .  A
C1050      C1051   1.396       .  A
C1050      H1063   1.083       .  S
C1051      C1052   1.411       .  A
C1051      H1064   1.077       .  S
C1052      C1058   1.432       .  A
C1052      C1053   1.420       .  A
C1053      C1055   1.400       .  A
C1053      C1054   1.406       .  A
C1054      H1065   1.078       .  S
C1055      C1056   1.390       .  A
C1055      H1066   1.084       .  S
C1056      C1057   1.399       .  A
C1056      H1067   1.084       .  S
C1057      C1058   1.422       .  A
C1057      C1062   1.405       .  A
C1058      C1059   1.416       .  A
C1059      C1060   1.399       .  A
C1059      H1068   1.077       .  S
C1060      C1061   1.400       .  A
C1060      H1069   1.083       .  S
C1061      C1062   1.401       .  A
C1062      H1070   1.085       .  S
C1071      C1072   1.410       .  A
C1071      C1076   1.413       .  A
C1072      C1073   1.389       .  A
C1072      H1085   1.081       .  S
C1073      C1074   1.409       .  A
C1073      H1086   1.076       .  S
C1074      C1080   1.430       .  A
C1074      C1075   1.420       .  A
C1075      C1077   1.403       .  A
C1075      C1076   1.414       .  A
C1076      H1087   1.084       .  S
C1077      C1078   1.397       .  A
C1077      H1088   1.084       .  S
C1078      C1079   1.402       .  A
C1078      H1089   1.084       .  S
C1079      C1080   1.424       .  A
C1079      C1084   1.416       .  A
C1080      C1081   1.413       .  A
C1081      C1082   1.389       .  A
C1081      H1090   1.076       .  S
C1082      C1083   1.397       .  A
C1082      H1091   1.084       .  S
C1083      C1084   1.405       .  A
C1084      H1092   1.084       .  S
C1093      C1094   1.402       .  A
C1093      C1098   1.405       .  A
C1094      C1095   1.390       .  A
C1094      H1107   1.083       .  S
C1095      C1096   1.412       .  A
C1095      H1108   1.076       .  S
C1096      C1102   1.429       .  A
C1096      C1097   1.422       .  A
C1097      C1099   1.402       .  A
C1097      C1098   1.414       .  A
C1098      H1109   1.084       .  S
C1099      C1100   1.396       .  A
C1099      H1110   1.084       .  S
C1100      C1101   1.402       .  A
C1100      H1111   1.084       .  S
C1101      C1102   1.422       .  A
C1101      C1106   1.414       .  A
C1102      C1103   1.409       .  A
C1103      C1104   1.387       .  A
C1103      H1112   1.076       .  S
C1104      C1105   1.408       .  A
C1104      H1113   1.083       .  S
C1105      C1106   1.412       .  A
C1106      H1114   1.082       .  S
C1115      C1116   1.411       .  A
C1115      C1120   1.412       .  A
C1116      C1117   1.390       .  A
C1116      H1129   1.080       .  S
C1117      C1118   1.410       .  A
C1117      H1130   1.077       .  S
C1118      C1124   1.428       .  A
C1118      C1119   1.419       .  A
C1119      C1121   1.402       .  A
C1119      C1120   1.410       .  A
C1120      H1131   1.084       .  S
C1121      C1122   1.395       .  A
C1121      H1132   1.084       .  S
C1122      C1123   1.402       .  A
C1122      H1133   1.084       .  S
C1123      C1124   1.421       .  A
C1123      C1128   1.411       .  A
C1124      C1125   1.412       .  A
C1125      C1126   1.391       .  A
C1125      H1134   1.077       .  S
C1126      C1127   1.402       .  A
C1126      H1135   1.083       .  S
C1127      C1128   1.406       .  A
C1128      H1136   1.084       .  S
C1137      C1138   1.401       .  A
C1137      C1142   1.405       .  A
C1138      C1139   1.393       .  A
C1138      H1151   1.083       .  S
C1139      C1140   1.412       .  A
C1139      H1152   1.078       .  S
C1140      C1146   1.428       .  A
C1140      C1141   1.421       .  A
C1141      C1143   1.401       .  A
C1141      C1142   1.411       .  A
C1142      H1153   1.084       .  S
C1143      C1144   1.395       .  A
C1143      H1154   1.084       .  S
C1144      C1145   1.402       .  A
C1144      H1155   1.084       .  S
C1145      C1146   1.418       .  A
C1145      C1150   1.410       .  A
C1146      C1147   1.408       .  A
C1147      C1148   1.392       .  A
C1147      H1156   1.078       .  S
C1148      C1149   1.413       .  A
C1148      H1157   1.077       .  S
C1149      C1150   1.415       .  A
C1150      H1158   1.084       .  S
C1159      C1160   1.402       .  A
C1159      C1164   1.405       .  A
C1160      C1161   1.407       .  A
C1160      H1173   1.083   1_556  S
C1161      C1162   1.419       .  A
C1161      H1174   1.078       .  S
C1162      C1168   1.435       .  A
C1162      C1163   1.421       .  A
C1163      C1165   1.399       .  A
C1163      C1164   1.400       .  A
C1164      H1175   1.084       .  S
C1165      C1166   1.385       .  A
C1165      H1176   1.084       .  S
C1166      C1167   1.397       .  A
C1166      H1177   1.084       .  S
C1167      C1168   1.421       .  A
C1167      C1172   1.400       .  A
C1168      C1169   1.415       .  A
C1169      C1170   1.404       .  A
C1169      H1178   1.078       .  S
C1170      C1171   1.410       .  A
C1170      H1179   1.080       .  S
C1171      C1172   1.408       .  A
C1172      H1180   1.085       .  S
C1181      C1182   1.410       .  A
C1181      C1186   1.412       .  A
C1182      C1183   1.396       .  A
C1182      H1195   1.080       .  S
C1183      C1184   1.412       .  A
C1183      H1196   1.077       .  S
C1184      C1190   1.432       .  A
C1184      C1185   1.420       .  A
C1185      C1187   1.401       .  A
C1185      C1186   1.408       .  A
C1186      H1197   1.085       .  S
C1187      C1188   1.393       .  A
C1187      H1198   1.084       .  S
C1188      C1189   1.400       .  A
C1188      H1199   1.084       .  S
C1189      C1190   1.423       .  A
C1189      C1194   1.411       .  A
C1190      C1191   1.414       .  A
C1191      C1192   1.395       .  A
C1191      H1200   1.077       .  S
C1192      C1193   1.401       .  A
C1192      H1201   1.084       .  S
C1193      C1194   1.403       .  A
C1194      H1202   1.084       .  S
C1203      C1204   1.412       .  A
C1203      C1208   1.410       .  A
C1204      C1205   1.395       .  A
C1204      H1217   1.080       .  S
C1205      C1206   1.410       .  A
C1205      H1218   1.077       .  S
C1206      C1212   1.431       .  A
C1206      C1207   1.421       .  A
C1207      C1209   1.399       .  A
C1207      C1208   1.405       .  A
C1208      H1219   1.084       .  S
C1209      C1210   1.390       .  A
C1209      H1220   1.084       .  S
C1210      C1211   1.399       .  A
C1210      H1221   1.084       .  S
C1211      C1212   1.422       .  A
C1211      C1216   1.404       .  A
C1212      C1213   1.418       .  A
C1213      C1214   1.399       .  A
C1213      H1222   1.077       .  S
C1214      C1215   1.396       .  A
C1214      H1223   1.084       .  S
C1215      C1216   1.398       .  A
C1216      H1224   1.085       .  S
C1225      C1226   1.400       .  A
C1225      C1230   1.400       .  A
C1226      C1227   1.400       .  A
C1226      H1239   1.083       .  S
C1227      C1228   1.417       .  A
C1227      H1240   1.077       .  S
C1228      C1234   1.433       .  A
C1228      C1229   1.423       .  A
C1229      C1231   1.399       .  A
C1229      C1230   1.404       .  A
C1230      H1241   1.085       .  S
C1231      C1232   1.388       .  A
C1231      H1242   1.084       .  S
C1232      C1233   1.400       .  A
C1232      H1243   1.084       .  S
C1233      C1234   1.421       .  A
C1233      C1238   1.405       .  A
C1234      C1235   1.413       .  A
C1235      C1236   1.398       .  A
C1235      H1244   1.077       .  S
C1236      C1237   1.410       .  A
C1236      H1245   1.083       .  S
C1237      C1238   1.410       .  A
C1238      H1246   1.080       .  S
C1247      C1248   1.399       .  A
C1247      C1252   1.402       .  A
C1248      C1249   1.393       .  A
C1248      H1261   1.084       .  S
C1249      C1250   1.414       .  A
C1249      H1262   1.077       .  S
C1250      C1256   1.429       .  A
C1250      C1251   1.423       .  A
C1251      C1253   1.400       .  A
C1251      C1252   1.409       .  A
C1252      H1263   1.085       .  S
C1253      C1254   1.392       .  A
C1253      H1264   1.084       .  S
C1254      C1255   1.401       .  A
C1254      H1265   1.084       .  S
C1255      C1256   1.420       .  A
C1255      C1260   1.408       .  A
C1256      C1257   1.412       .  A
C1257      C1258   1.392       .  A
C1257      H1266   1.077       .  S
C1258      C1259   1.408       .  A
C1258      H1267   1.083       .  S
C1259      C1260   1.412       .  A
C1260      H1268   1.081       .  S
C1269      C1270   1.408       .  A
C1269      C1274   1.410       .  A
C1270      C1271   1.400       .  A
C1270      H1283   1.083       .  S
C1271      C1272   1.414       .  A
C1271      H1284   1.078       .  S
C1272      C1278   1.431       .  A
C1272      C1273   1.419       .  A
C1273      C1275   1.399       .  A
C1273      C1274   1.402       .  A
C1274      H1285   1.083       .  S
C1275      C1276   1.388       .  A
C1275      H1286   1.084       .  S
C1276      C1277   1.399       .  A
C1276      H1287   1.084       .  S
C1277      C1278   1.422       .  A
C1277      C1282   1.403       .  A
C1278      C1279   1.415       .  A
C1279      C1280   1.400       .  A
C1279      H1288   1.078       .  S
C1280      C1281   1.403       .  A
C1280      H1289   1.083       .  S
C1281      C1282   1.402       .  A
C1282      H1290   1.084       .  S
C1291      C1292   1.412       .  A
C1291      C1296   1.410       .  A
C1292      C1293   1.397       .  A
C1292      H1305   1.080       .  S
C1293      C1294   1.411       .  A
C1293      H1306   1.077       .  S
C1294      C1300   1.431       .  A
C1294      C1295   1.420       .  A
C1295      C1297   1.399       .  A
C1295      C1296   1.404       .  A
C1296      H1307   1.084       .  S
C1297      C1298   1.390       .  A
C1297      H1308   1.084       .  S
C1298      C1299   1.399       .  A
C1298      H1309   1.084       .  S
C1299      C1300   1.422       .  A
C1299      C1304   1.404       .  A
C1300      C1301   1.416       .  A
C1301      C1302   1.399       .  A
C1301      H1310   1.077       .  S
C1302      C1303   1.400       .  A
C1302      H1311   1.083       .  S
C1303      C1304   1.403       .  A
C1304      H1312   1.085       .  S
C1313      C1314   1.400       .  A
C1313      C1318   1.399       .  A
C1314      C1315   1.405       .  A
C1314      H1327   1.083       .  S
C1315      C1316   1.418       .  A
C1315      H1328   1.078       .  S
C1316      C1322   1.436       .  A
C1316      C1317   1.423       .  A
C1317      C1319   1.398       .  A
C1317      C1318   1.404       .  A
C1318      H1329   1.085       .  S
C1319      C1320   1.388       .  A
C1319      H1330   1.084       .  S
C1320      C1321   1.400       .  A
C1320      H1331   1.084       .  S
C1321      C1322   1.420       .  A
C1321      C1326   1.404       .  A
C1322      C1323   1.415       .  A
C1323      C1324   1.404       .  A
C1323      H1332   1.078       .  S
C1324      C1325   1.411       .  A
C1324      H1333   1.083       .  S
C1325      C1326   1.412       .  A
C1326      H1334   1.080       .  S
C1335      C1336   1.411       .  A
C1335      C1340   1.413       .  A
C1336      C1337   1.399       .  A
C1336      H1349   1.079       .  S
C1337      C1338   1.413       .  A
C1337      H1350   1.077       .  S
C1338      C1344   1.434       .  A
C1338      C1339   1.419       .  A
C1339      C1341   1.401       .  A
C1339      C1340   1.408       .  A
C1340      H1351   1.084       .  S
C1341      C1342   1.392       .  A
C1341      H1352   1.084       .  S
C1342      C1343   1.400       .  A
C1342      H1353   1.084       .  S
C1343      C1344   1.424       .  A
C1343      C1348   1.411       .  A
C1344      C1345   1.415       .  A
C1345      C1346   1.398       .  A
C1345      H1354   1.077       .  S
C1346      C1347   1.400       .  A
C1346      H1355   1.084       .  S
C1347      C1348   1.402       .  A
C1348      H1356   1.084       .  S
C1357      C1358   1.408       .  A
C1357      C1362   1.413       .  A
C1358      C1359   1.393       .  A
C1358      H1371   1.083       .  S
C1359      C1360   1.412       .  A
C1359      H1372   1.077       .  S
C1360      C1366   1.432       .  A
C1360      C1361   1.421       .  A
C1361      C1363   1.402       .  A
C1361      C1362   1.412       .  A
C1362      H1373   1.080       .  S
C1363      C1364   1.395       .  A
C1363      H1374   1.084       .  S
C1364      C1365   1.401       .  A
C1364      H1375   1.084       .  S
C1365      C1366   1.423       .  A
C1365      C1370   1.413       .  A
C1366      C1367   1.413       .  A
C1367      C1368   1.393       .  A
C1367      H1376   1.077       .  S
C1368      C1369   1.402       .  A
C1368      H1377   1.083       .  S
C1369      C1370   1.406       .  A
C1370      H1378   1.084       .  S
C1379      C1380   1.411       .  A
C1379      C1384   1.413       .  A
C1380      C1381   1.395       .  A
C1380      H1393   1.079       .  S
C1381      C1382   1.412       .  A
C1381      H1394   1.077       .  S
C1382      C1388   1.431       .  A
C1382      C1383   1.419       .  A
C1383      C1385   1.401       .  A
C1383      C1384   1.407       .  A
C1384      H1395   1.084       .  S
C1385      C1386   1.393       .  A
C1385      H1396   1.084       .  S
C1386      C1387   1.400       .  A
C1386      H1397   1.084       .  S
C1387      C1388   1.425       .  A
C1387      C1392   1.412       .  A
C1388      C1389   1.413       .  A
C1389      C1390   1.393       .  A
C1389      H1398   1.077       .  S
C1390      C1391   1.400       .  A
C1390      H1399   1.084       .  S
C1391      C1392   1.400       .  A
C1392      H1400   1.084       .  S
C1401      C1402   1.397       .  A
C1401      C1406   1.403       .  A
C1402      C1403   1.395       .  A
C1402      H1415   1.084       .  S
C1403      C1404   1.415       .  A
C1403      H1416   1.077       .  S
C1404      C1410   1.431       .  A
C1404      C1405   1.423       .  A
C1405      C1407   1.402       .  A
C1405      C1406   1.413       .  A
C1406      H1417   1.084       .  S
C1407      C1408   1.395       .  A
C1407      H1418   1.084       .  S
C1408      C1409   1.401       .  A
C1408      H1419   1.084       .  S
C1409      C1410   1.420       .  A
C1409      C1414   1.413       .  A
C1410      C1411   1.409       .  A
C1411      C1412   1.392       .  A
C1411      H1420   1.077       .  S
C1412      C1413   1.414       .  A
C1412      H1421   1.080       .  S
C1413      C1414   1.412       .  A
C1414      H1422   1.084       .  S
C1423      C1424   1.411       .  A
C1423      C1428   1.413       .  A
C1424      C1425   1.388       .  A
C1424      H1437   1.079       .  S
C1425      C1426   1.407       .  A
C1425      H1438   1.078       .  S
C1426      C1432   1.426       .  A
C1426      C1427   1.419       .  A
C1427      C1429   1.402       .  A
C1427      C1428   1.411       .  A
C1428      H1439   1.084       .  S
C1429      C1430   1.396       .  A
C1429      H1440   1.084       .  S
C1430      C1431   1.402       .  A
C1430      H1441   1.084       .  S
C1431      C1432   1.421       .  A
C1431      C1436   1.410       .  A
C1432      C1433   1.412       .  A
C1433      C1434   1.390       .  A
C1433      H1442   1.077       .  S
C1434      C1435   1.400       .  A
C1434      H1443   1.084       .  S
C1435      C1436   1.405       .  A
C1436      H1444   1.084       .  S
C1445      C1446   1.401       .  A
C1445      C1450   1.402       .  A
C1446      C1447   1.401       .  A
C1446      H1459   1.083       .  S
C1447      C1448   1.416       .  A
C1447      H1460   1.078       .  S
C1448      C1454   1.430       .  A
C1448      C1449   1.422       .  A
C1449      C1451   1.398       .  A
C1449      C1450   1.400       .  A
C1450      H1461   1.085       .  S
C1451      C1452   1.386       .  A
C1451      H1462   1.084       .  S
C1452      C1453   1.399       .  A
C1452      H1463   1.084       .  S
C1453      C1454   1.419       .  A
C1453      C1458   1.400       .  A
C1454      C1455   1.413       .  A
C1455      C1456   1.400       .  A
C1455      H1464   1.078       .  S
C1456      C1457   1.410       .  A
C1456      H1465   1.083       .  S
C1457      C1458   1.412       .  A
C1458      H1466   1.080       .  S
C1467      C1468   1.401       .  A
C1467      C1472   1.404       .  A
C1468      C1469   1.403       .  A
C1468      H1481   1.083       .  S
C1469      C1470   1.418       .  A
C1469      H1482   1.078       .  S
C1470      C1476   1.432       .  A
C1470      C1471   1.420       .  A
C1471      C1473   1.399       .  A
C1471      C1472   1.401       .  A
C1472      H1483   1.085       .  S
C1473      C1474   1.388       .  A
C1473      H1484   1.084       .  S
C1474      C1475   1.398       .  A
C1474      H1485   1.084       .  S
C1475      C1476   1.421       .  A
C1475      C1480   1.404       .  A
C1476      C1477   1.411       .  A
C1477      C1478   1.399       .  A
C1477      H1486   1.078       .  S
C1478      C1479   1.413       .  A
C1478      H1487   1.079       .  S
C1479      C1480   1.408       .  A
C1480      H1488   1.085       .  S
C1489      C1490   1.401       .  A
C1489      C1494   1.403       .  A
C1490      C1491   1.398       .  A
C1490      H1503   1.083       .  S
C1491      C1492   1.415       .  A
C1491      H1504   1.078       .  S
C1492      C1498   1.429       .  A
C1492      C1493   1.421       .  A
C1493      C1495   1.400       .  A
C1493      C1494   1.404       .  A
C1494      H1505   1.084       .  S
C1495      C1496   1.390       .  A
C1495      H1506   1.084       .  S
C1496      C1497   1.400       .  A
C1496      H1507   1.084       .  S
C1497      C1498   1.420       .  A
C1497      C1502   1.405       .  A
C1498      C1499   1.411       .  A
C1499      C1500   1.396       .  A
C1499      H1508   1.078       .  S
C1500      C1501   1.410       .  A
C1500      H1509   1.083       .  S
C1501      C1502   1.411       .  A
C1502      H1510   1.081       .  S
C1511      C1512   1.410       .  A
C1511      C1516   1.413       .  A
C1512      C1513   1.404       .  A
C1512      H1525   1.083       .  S
C1513      C1514   1.415       .  A
C1513      H1526   1.079       .  S
C1514      C1520   1.435       .  A
C1514      C1515   1.419       .  A
C1515      C1517   1.399       .  A
C1515      C1516   1.401       .  A
C1516      H1527   1.081       .  S
C1517      C1518   1.387       .  A
C1517      H1528   1.084       .  S
C1518      C1519   1.398       .  A
C1518      H1529   1.084       .  S
C1519      C1520   1.423       .  A
C1519      C1524   1.403       .  A
C1520      C1521   1.417       .  A
C1521      C1522   1.405       .  A
C1521      H1530   1.079       .  S
C1522      C1523   1.403       .  A
C1522      H1531   1.083       .  S
C1523      C1524   1.401       .  A
C1524      H1532   1.085       .  S
C1533      C1534   1.409       .  A
C1533      C1538   1.411       .  A
C1534      C1535   1.398       .  A
C1534      H1547   1.080       .  S
C1535      C1536   1.413       .  A
C1535      H1548   1.078       .  S
C1536      C1542   1.431       .  A
C1536      C1537   1.419       .  A
C1537      C1539   1.400       .  A
C1537      C1538   1.406       .  A
C1538      H1549   1.084       .  S
C1539      C1540   1.392       .  A
C1539      H1550   1.084       .  S
C1540      C1541   1.400       .  A
C1540      H1551   1.084       .  S
C1541      C1542   1.423       .  A
C1541      C1546   1.409       .  A
C1542      C1543   1.415       .  A
C1543      C1544   1.397       .  A
C1543      H1552   1.078       .  S
C1544      C1545   1.399       .  A
C1544      H1553   1.084       .  S
C1545      C1546   1.401       .  A
C1546      H1554   1.085       .  S
C1555      C1556   1.403       .  A
C1555      C1560   1.404       .  A
C1556      C1557   1.409       .  A
C1556      H1569   1.083       .  S
C1557      C1558   1.420       .  A
C1557      H1570   1.078       .  S
C1558      C1564   1.438       .  A
C1558      C1559   1.421       .  A
C1559      C1561   1.399       .  A
C1559      C1560   1.401       .  A
C1560      H1571   1.085       .  S
C1561      C1562   1.386       .  A
C1561      H1572   1.084       .  S
C1562      C1563   1.398       .  A
C1562      H1573   1.084       .  S
C1563      C1564   1.421       .  A
C1563      C1568   1.402       .  A
C1564      C1565   1.414       .  A
C1565      C1566   1.406       .  A
C1565      H1574   1.078       .  S
C1566      C1567   1.412       .  A
C1566      H1575   1.079       .  S
C1567      C1568   1.409       .  A
C1568      H1576   1.085       .  S
C1577      C1578   1.397       .  A
C1577      C1582   1.398       .  A
C1578      C1579   1.400       .  A
C1578      H1591   1.083       .  S
C1579      C1580   1.418       .  A
C1579      H1592   1.078       .  S
C1580      C1586   1.430       .  A
C1580      C1581   1.421       .  A
C1581      C1583   1.399       .  A
C1581      C1582   1.403       .  A
C1582      H1593   1.085       .  S
C1583      C1584   1.390       .  A
C1583      H1594   1.084       .  S
C1584      C1585   1.399       .  A
C1584      H1595   1.084       .  S
C1585      C1586   1.421       .  A
C1585      C1590   1.404       .  A
C1586      C1587   1.410       .  A
C1587      C1588   1.396       .  A
C1587      H1596   1.078       .  S
C1588      C1589   1.413       .  A
C1588      H1597   1.080       .  S
C1589      C1590   1.408       .  A
C1590      H1598   1.084       .  S
C1599      C1600   1.411       .  A
C1599      C1604   1.411       .  A
C1600      C1601   1.392       .  A
C1600      H1613   1.079       .  S
C1601      C1602   1.410       .  A
C1601      H1614   1.077       .  S
C1602      C1608   1.428       .  A
C1602      C1603   1.419       .  A
C1603      C1605   1.400       .  A
C1603      C1604   1.405       .  A
C1604      H1615   1.084       .  S
C1605      C1606   1.391       .  A
C1605      H1616   1.084       .  S
C1606      C1607   1.400       .  A
C1606      H1617   1.084       .  S
C1607      C1608   1.423       .  A
C1607      C1612   1.406       .  A
C1608      C1609   1.415       .  A
C1609      C1610   1.393       .  A
C1609      H1618   1.077       .  S
C1610      C1611   1.397       .  A
C1610      H1619   1.084       .  S
C1611      C1612   1.401       .  A
C1612      H1620   1.085       .  S
C1621      C1622   1.402       .  A
C1621      C1626   1.406       .  A
C1622      C1623   1.387       .  A
C1622      H1635   1.084       .  S
C1623      C1624   1.409       .  A
C1623      H1636   1.077       .  S
C1624      C1630   1.426       .  A
C1624      C1625   1.423       .  A
C1625      C1627   1.402       .  A
C1625      C1626   1.415       .  A
C1626      H1637   1.084       .  S
C1627      C1628   1.397       .  A
C1627      H1638   1.084       .  S
C1628      C1629   1.403       .  A
C1628      H1639   1.084       .  S
C1629      C1630   1.419       .  A
C1629      C1634   1.412       .  A
C1630      C1631   1.410       .  A
C1631      C1632   1.387       .  A
C1631      H1640   1.077       .  S
C1632      C1633   1.407       .  A
C1632      H1641   1.083       .  S
C1633      C1634   1.414       .  A
C1634      H1642   1.081       .  S
C1643      C1644   1.410       .  A
C1643      C1648   1.413       .  A
C1644      C1645   1.398       .  A
C1644      H1657   1.083       .  S
C1645      C1646   1.412       .  A
C1645      H1658   1.078       .  S
C1646      C1652   1.431       .  A
C1646      C1647   1.419       .  A
C1647      C1649   1.401       .  A
C1647      C1648   1.407       .  A
C1648      H1659   1.082       .  S
C1649      C1650   1.392       .  A
C1649      H1660   1.084       .  S
C1650      C1651   1.400       .  A
C1650      H1661   1.084       .  S
C1651      C1652   1.423       .  A
C1651      C1656   1.409       .  A
C1652      C1653   1.414       .  A
C1653      C1654   1.398       .  A
C1653      H1662   1.078       .  S
C1654      C1655   1.400       .  A
C1654      H1663   1.084       .  S
C1655      C1656   1.400       .  A
C1656      H1664   1.085       .  S
C1665      C1666   1.413       .  A
C1665      C1670   1.415       .  A
C1666      C1667   1.394       .  A
C1666      H1679   1.076       .  S
C1667      C1668   1.408       .  A
C1667      H1680   1.078       .  S
C1668      C1674   1.430       .  A
C1668      C1669   1.418       .  A
C1669      C1671   1.402       .  A
C1669      C1670   1.411       .  A
C1670      H1681   1.084       .  S
C1671      C1672   1.396       .  A
C1671      H1682   1.084       .  S
C1672      C1673   1.401       .  A
C1672      H1683   1.084       .  S
C1673      C1674   1.421       .  A
C1673      C1678   1.412       .  A
C1674      C1675   1.412       .  A
C1675      C1676   1.394       .  A
C1675      H1684   1.078       .  S
C1676      C1677   1.403       .  A
C1676      H1685   1.083       .  S
C1677      C1678   1.405       .  A
C1678      H1686   1.084       .  S
C1687      C1688   1.401       .  A
C1687      C1692   1.405       .  A
C1688      C1689   1.407       .  A
C1688      H1701   1.083       .  S
C1689      C1690   1.420       .  A
C1689      H1702   1.078       .  S
C1690      C1696   1.433       .  A
C1690      C1691   1.419       .  A
C1691      C1693   1.399       .  A
C1691      C1692   1.398       .  A
C1692      H1703   1.084       .  S
C1693      C1694   1.385       .  A
C1693      H1704   1.084       .  S
C1694      C1695   1.397       .  A
C1694      H1705   1.084       .  S
C1695      C1696   1.422       .  A
C1695      C1700   1.401       .  A
C1696      C1697   1.412       .  A
C1697      C1698   1.400       .  A
C1697      H1706   1.078       .  S
C1698      C1699   1.412       .  A
C1698      H1707   1.081       .  S
C1699      C1700   1.406       .  A
C1700      H1708   1.084       .  S
C1709      C1710   1.410       .  A
C1709      C1714   1.412       .  A
C1710      C1711   1.400       .  A
C1710      H1723   1.079       .  S
C1711      C1712   1.413       .  A
C1711      H1724   1.078       .  S
C1712      C1718   1.430       .  A
C1712      C1713   1.418       .  A
C1713      C1715   1.400       .  A
C1713      C1714   1.403       .  A
C1714      H1725   1.084       .  S
C1715      C1716   1.390       .  A
C1715      H1726   1.084       .  S
C1716      C1717   1.399       .  A
C1716      H1727   1.084       .  S
C1717      C1718   1.422       .  A
C1717      C1722   1.404       .  A
C1718      C1719   1.415       .  A
C1719      C1720   1.399       .  A
C1719      H1728   1.078       .  S
C1720      C1721   1.400       .  A
C1720      H1729   1.083       .  S
C1721      C1722   1.401       .  A
C1722      H1730   1.085       .  S
C1731      C1732   1.411       .  A
C1731      C1736   1.410       .  A
C1732      C1733   1.397       .  A
C1732      H1745   1.080       .  S
C1733      C1734   1.412       .  A
C1733      H1746   1.077       .  S
C1734      C1740   1.430       .  A
C1734      C1735   1.420       .  A
C1735      C1737   1.399       .  A
C1735      C1736   1.402       .  A
C1736      H1747   1.085       .  S
C1737      C1738   1.389       .  A
C1737      H1748   1.084       .  S
C1738      C1739   1.399       .  A
C1738      H1749   1.084       .  S
C1739      C1740   1.423       .  A
C1739      C1744   1.403       .  A
C1740      C1741   1.417       .  A
C1741      C1742   1.399       .  A
C1741      H1750   1.077       .  S
C1742      C1743   1.396       .  A
C1742      H1751   1.083       .  S
C1743      C1744   1.398       .  A
C1744      H1752   1.085       .  S
C1753      C1754   1.408       .  A
C1753      C1758   1.413       .  A
C1754      C1755   1.395       .  A
C1754      H1767   1.080       .  S
C1755      C1756   1.412       .  A
C1755      H1768   1.078       .  S
C1756      C1762   1.427       .  A
C1756      C1757   1.418       .  A
C1757      C1759   1.400       .  A
C1757      C1758   1.404       .  A
C1758      H1769   1.084       .  S
C1759      C1760   1.392       .  A
C1759      H1770   1.084       .  S
C1760      C1761   1.400       .  A
C1760      H1771   1.084       .  S
C1761      C1762   1.423       .  A
C1761      C1766   1.407       .  A
C1762      C1763   1.412       .  A
C1763      C1764   1.392       .  A
C1763      H1772   1.077       .  S
C1764      C1765   1.402       .  A
C1764      H1773   1.083       .  S
C1765      C1766   1.402       .  A
C1766      H1774   1.084       .  S
C1775      C1776   1.413       .  A
C1775      C1780   1.414       .  A
C1776      C1777   1.387       .  A
C1776      H1789   1.079       .  S
C1777      C1778   1.407       .  A
C1777      H1790   1.076       .  S
C1778      C1784   1.429       .  A
C1778      C1779   1.420       .  A
C1779      C1781   1.402       .  A
C1779      C1780   1.415       .  A
C1780      H1791   1.084       .  S
C1781      C1782   1.398       .  A
C1781      H1792   1.084       .  S
C1782      C1783   1.402       .  A
C1782      H1793   1.084       .  S
C1783      C1784   1.423       .  A
C1783      C1788   1.415       .  A
C1784      C1785   1.414       .  A
C1785      C1786   1.390       .  A
C1785      H1794   1.076       .  S
C1786      C1787   1.396       .  A
C1786      H1795   1.084       .  S
C1787      C1788   1.404       .  A
C1788      H1796   1.084       .  S
C1797      C1798   1.409       .  A
C1797      C1802   1.413       .  A
C1798      C1799   1.395       .  A
C1798      H1811   1.083       .  S
C1799      C1800   1.412       .  A
C1799      H1812   1.077       .  S
C1800      C1806   1.431       .  A
C1800      C1801   1.420       .  A
C1801      C1803   1.401       .  A
C1801      C1802   1.406       .  A
C1802      H1813   1.080       .  S
C1803      C1804   1.390       .  A
C1803      H1814   1.084       .  S
C1804      C1805   1.399       .  A
C1804      H1815   1.084       .  S
C1805      C1806   1.424       .  A
C1805      C1810   1.407       .  A
C1806      C1807   1.415       .  A
C1807      C1808   1.396       .  A
C1807      H1816   1.077       .  S
C1808      C1809   1.397       .  A
C1808      H1817   1.084       .  S
C1809      C1810   1.398       .  A
C1810      H1818   1.085       .  S
C1819      C1820   1.410       .  A
C1819      C1824   1.412       .  A
C1820      C1821   1.399       .  A
C1820      H1833   1.083       .  S
C1821      C1822   1.414       .  A
C1821      H1834   1.078       .  S
C1822      C1828   1.433       .  A
C1822      C1823   1.420       .  A
C1823      C1825   1.400       .  A
C1823      C1824   1.405       .  A
C1824      H1835   1.080       .  S
C1825      C1826   1.389       .  A
C1825      H1836   1.084       .  S
C1826      C1827   1.399       .  A
C1826      H1837   1.084       .  S
C1827      C1828   1.423       .  A
C1827      C1832   1.406       .  A
C1828      C1829   1.415       .  A
C1829      C1830   1.400       .  A
C1829      H1838   1.078       .  S
C1830      C1831   1.402       .  A
C1830      H1839   1.083       .  S
C1831      C1832   1.401       .  A
C1832      H1840   1.085       .  S
C1841      C1842   1.401       .  A
C1841      C1846   1.401       .  A
C1842      C1843   1.395       .  A
C1842      H1855   1.083       .  S
C1843      C1844   1.414       .  A
C1843      H1856   1.078       .  S
C1844      C1850   1.429       .  A
C1844      C1845   1.422       .  A
C1845      C1847   1.400       .  A
C1845      C1846   1.406       .  A
C1846      H1857   1.084       .  S
C1847      C1848   1.391       .  A
C1847      H1858   1.084       .  S
C1848      C1849   1.400       .  A
C1848      H1859   1.084       .  S
C1849      C1850   1.418       .  A
C1849      C1854   1.404       .  A
C1850      C1851   1.411       .  A
C1851      C1852   1.395       .  A
C1851      H1860   1.078       .  S
C1852      C1853   1.412       .  A
C1852      H1861   1.078       .  S
C1853      C1854   1.413       .  A
C1854      H1862   1.084       .  S
C1863      C1864   1.409       .  A
C1863      C1868   1.412       .  A
C1864      C1865   1.394       .  A
C1864      H1877   1.083       .  S
C1865      C1866   1.412       .  A
C1865      H1878   1.077       .  S
C1866      C1872   1.431       .  A
C1866      C1867   1.420       .  A
C1867      C1869   1.401       .  A
C1867      C1868   1.409       .  A
C1868      H1879   1.079       .  S
C1869      C1870   1.392       .  A
C1869      H1880   1.084       .  S
C1870      C1871   1.400       .  A
C1870      H1881   1.084       .  S
C1871      C1872   1.422       .  A
C1871      C1876   1.409       .  A
C1872      C1873   1.413       .  A
C1873      C1874   1.395       .  A
C1873      H1882   1.077       .  S
C1874      C1875   1.402       .  A
C1874      H1883   1.083       .  S
C1875      C1876   1.405       .  A
C1876      H1884   1.084       .  S
C1885      C1886   1.408       .  A
C1885      C1890   1.411       .  A
C1886      C1887   1.398       .  A
C1886      H1899   1.083       .  S
C1887      C1888   1.413       .  A
C1887      H1900   1.079       .  S
C1888      C1894   1.427       .  A
C1888      C1889   1.418       .  A
C1889      C1891   1.399       .  A
C1889      C1890   1.401       .  A
C1890      H1901   1.082       .  S
C1891      C1892   1.389       .  A
C1891      H1902   1.084       .  S
C1892      C1893   1.400       .  A
C1892      H1903   1.084       .  S
C1893      C1894   1.422       .  A
C1893      C1898   1.402       .  A
C1894      C1895   1.414       .  A
C1895      C1896   1.397       .  A
C1895      H1904   1.078       .  S
C1896      C1897   1.401       .  A
C1896      H1905   1.083       .  S
C1897      C1898   1.402       .  A
C1898      H1906   1.084       .  S
C1907      C1908   1.413       .  A
C1907      C1912   1.411       .  A
C1908      C1909   1.389       .  A
C1908      H1921   1.079       .  S
C1909      C1910   1.407       .  A
C1909      H1922   1.078       .  S
C1910      C1916   1.427       .  A
C1910      C1911   1.420       .  A
C1911      C1913   1.401       .  A
C1911      C1912   1.411       .  A
C1912      H1923   1.084       .  S
C1913      C1914   1.395       .  A
C1913      H1924   1.084       .  S
C1914      C1915   1.401       .  A
C1914      H1925   1.084       .  S
C1915      C1916   1.421       .  A
C1915      C1920   1.409       .  A
C1916      C1917   1.415       .  A
C1917      C1918   1.393       .  A
C1917      H1926   1.077       .  S
C1918      C1919   1.396       .  A
C1918      H1927   1.084       .  S
C1919      C1920   1.401       .  A
C1920      H1928   1.084       .  S
C1929      C1930   1.402       .  A
C1929      C1934   1.402       .  A
C1930      C1931   1.400       .  A
C1930      H1943   1.083       .  S
C1931      C1932   1.416       .  A
C1931      H1944   1.078       .  S
C1932      C1938   1.430       .  A
C1932      C1933   1.422       .  A
C1933      C1935   1.398       .  A
C1933      C1934   1.399       .  A
C1934      H1945   1.084       .  S
C1935      C1936   1.386       .  A
C1935      H1946   1.084       .  S
C1936      C1937   1.398       .  A
C1936      H1947   1.084       .  S
C1937      C1938   1.419       .  A
C1937      C1942   1.398       .  A
C1938      C1939   1.414       .  A
C1939      C1940   1.400       .  A
C1939      H1948   1.078       .  S
C1940      C1941   1.409       .  A
C1940      H1949   1.080       .  S
C1941      C1942   1.408       .  A
C1942      H1950   1.084       .  S
C1951      C1952   1.411       .  A
C1951      C1956   1.409       .  A
C1952      C1953   1.395       .  A
C1952      H1965   1.079       .  S
C1953      C1954   1.411       .  A
C1953      H1966   1.077       .  S
C1954      C1960   1.430       .  A
C1954      C1955   1.420       .  A
C1955      C1957   1.399       .  A
C1955      C1956   1.402       .  A
C1956      H1967   1.084       .  S
C1957      C1958   1.388       .  A
C1957      H1968   1.084       .  S
C1958      C1959   1.399       .  A
C1958      H1969   1.084       .  S
C1959      C1960   1.421       .  A
C1959      C1964   1.401       .  A
C1960      C1961   1.417       .  A
C1961      C1962   1.399       .  A
C1961      H1970   1.077       .  S
C1962      C1963   1.400       .  A
C1962      H1971   1.083       .  S
C1963      C1964   1.404       .  A
C1964      H1972   1.084       .  S
C1973      C1974   1.407       .  A
C1973      C1978   1.416       .  A
C1974      C1975   1.387       .  A
C1974      H1987   1.083       .  S
C1975      C1976   1.409       .  A
C1975      H1988   1.078       .  S
C1976      C1982   1.423       .  A
C1976      C1977   1.416       .  A
C1977      C1979   1.405       .  A
C1977      C1978   1.412       .  A
C1978      H1989   1.081       .  S
C1979      C1980   1.400       .  A
C1979      H1990   1.084       .  S
C1980      C1981   1.403       .  A
C1980      H1991   1.083       .  S
C1981      C1982   1.422       .  A
C1981      C1986   1.419       .  A
C1982      C1983   1.405       .  A
C1983      C1984   1.383       .  A
C1983      H1992   1.079       .  S
C1984      C1985   1.405       .  A
C1984      H1993   1.084       .  S
C1985      C1986   1.407       .  A
C1986      H1994   1.084       .  S
C1995      C1996   1.411       .  A
C1995      C2000   1.411       .  A
C1996      C1997   1.387       .  A
C1996      H2009   1.079       .  S
C1997      C1998   1.408       .  A
C1997      H2010   1.076       .  S
C1998      C2004   1.426       .  A
C1998      C1999   1.420       .  A
C1999      C2001   1.401       .  A
C1999      C2000   1.409       .  A
C2000      H2011   1.084       .  S
C2001      C2002   1.394       .  A
C2001      H2012   1.084       .  S
C2002      C2003   1.401       .  A
C2002      H2013   1.084       .  S
C2003      C2004   1.423       .  A
C2003      C2008   1.409       .  A
C2004      C2005   1.414       .  A
C2005      C2006   1.388       .  A
C2005      H2014   1.076       .  S
C2006      C2007   1.394       .  A
C2006      H2015   1.084       .  S
C2007      C2008   1.399       .  A
C2008      H2016   1.084       .  S
C2017      C2018   1.411       .  A
C2017      C2022   1.412       .  A
C2018      C2019   1.394       .  A
C2018      H2031   1.083       .  S
C2019      C2020   1.411       .  A
C2019      H2032   1.077       .  S
C2020      C2026   1.432       .  A
C2020      C2021   1.421       .  A
C2021      C2023   1.401       .  A
C2021      C2022   1.408       .  A
C2022      H2033   1.079       .  S
C2023      C2024   1.391       .  A
C2023      H2034   1.084       .  S
C2024      C2025   1.400       .  A
C2024      H2035   1.084       .  S
C2025      C2026   1.422       .  A
C2025      C2030   1.407       .  A
C2026      C2027   1.416       .  A
C2027      C2028   1.398       .  A
C2027      H2036   1.077       .  S
C2028      C2029   1.400       .  A
C2028      H2037   1.083       .  S
C2029      C2030   1.402       .  A
C2030      H2038   1.085       .  S
C2039      C2040   1.402       .  A
C2039      C2044   1.404       .  A
C2040      C2041   1.398       .  A
C2040      H2053   1.083       .  S
C2041      C2042   1.415       .  A
C2041      H2054   1.078       .  S
C2042      C2048   1.430       .  A
C2042      C2043   1.422       .  A
C2043      C2045   1.400       .  A
C2043      C2044   1.404       .  A
C2044      H2055   1.084       .  S
C2045      C2046   1.390       .  A
C2045      H2056   1.084       .  S
C2046      C2047   1.399       .  A
C2046      H2057   1.084       .  S
C2047      C2048   1.419       .  A
C2047      C2052   1.403       .  A
C2048      C2049   1.412       .  A
C2049      C2050   1.398       .  A
C2049      H2058   1.078       .  S
C2050      C2051   1.410       .  A
C2050      H2059   1.080       .  S
C2051      C2052   1.411       .  A
C2052      H2060   1.084       .  S
C2061      C2062   1.398       .  A
C2061      C2066   1.399       .  A
C2062      C2063   1.395       .  A
C2062      H2075   1.084       .  S
C2063      C2064   1.414       .  A
C2063      H2076   1.078       .  S
C2064      C2070   1.427       .  A
C2064      C2065   1.423       .  A
C2065      C2067   1.400       .  A
C2065      C2066   1.406       .  A
C2066      H2077   1.085       .  S
C2067      C2068   1.391       .  A
C2067      H2078   1.084       .  S
C2068      C2069   1.400       .  A
C2068      H2079   1.084       .  S
C2069      C2070   1.417       .  A
C2069      C2074   1.404       .  A
C2070      C2071   1.411       .  A
C2071      C2072   1.397       .  A
C2071      H2080   1.079       .  S
C2072      C2073   1.410       .  A
C2072      H2081   1.079       .  S
C2073      C2074   1.412       .  A
C2074      H2082   1.084       .  S
C2083      C2084   1.397       .  A
C2083      C2088   1.403       .  A
C2084      C2085   1.387       .  A
C2084      H2097   1.084       .  S
C2085      C2086   1.410       .  A
C2085      H2098   1.078       .  S
C2086      C2092   1.425       .  A
C2086      C2087   1.423       .  A
C2087      C2089   1.402       .  A
C2087      C2088   1.413       .  A
C2088      H2099   1.084       .  S
C2089      C2090   1.397       .  A
C2089      H2100   1.084       .  S
C2090      C2091   1.403       .  A
C2090      H2101   1.084       .  S
C2091      C2092   1.417       .  A
C2091      C2096   1.408       .  A
C2092      C2093   1.410       .  A
C2093      C2094   1.389       .  A
C2093      H2102   1.078       .  S
C2094      C2095   1.408       .  A
C2094      H2103   1.079       .  S
C2095      C2096   1.414       .  A
C2096      H2104   1.084       .  S
C2105      C2106   1.402       .  A
C2105      C2110   1.403       .  A
C2106      C2107   1.399       .  A
C2106      H2119   1.083       .  S
C2107      C2108   1.415       .  A
C2107      H2120   1.077       .  S
C2108      C2114   1.433       .  A
C2108      C2109   1.423       .  A
C2109      C2111   1.399       .  A
C2109      C2110   1.407       .  A
C2110      H2121   1.085       .  S
C2111      C2112   1.390       .  A
C2111      H2122   1.084       .  S
C2112      C2113   1.400       .  A
C2112      H2123   1.084       .  S
C2113      C2114   1.420       .  A
C2113      C2118   1.406       .  A
C2114      C2115   1.413       .  A
C2115      C2116   1.398       .  A
C2115      H2124   1.077       .  S
C2116      C2117   1.409       .  A
C2116      H2125   1.083       .  S
C2117      C2118   1.412       .  A
C2118      H2126   1.080       .  S
C2127      C2128   1.395       .  A
C2127      C2132   1.398       .  A
C2128      C2129   1.397       .  A
C2128      H2141   1.084       .  S
C2129      C2130   1.417       .  A
C2129      H2142   1.077       .  S
C2130      C2136   1.429       .  A
C2130      C2131   1.422       .  A
C2131      C2133   1.399       .  A
C2131      C2132   1.404       .  A
C2132      H2143   1.085       .  S
C2133      C2134   1.390       .  A
C2133      H2144   1.084       .  S
C2134      C2135   1.400       .  A
C2134      H2145   1.084       .  S
C2135      C2136   1.420       .  A
C2135      C2140   1.404       .  A
C2136      C2137   1.411       .  A
C2137      C2138   1.395       .  A
C2137      H2146   1.077       .  S
C2138      C2139   1.411       .  A
C2138      H2147   1.080       .  S
C2139      C2140   1.410       .  A
C2140      H2148   1.085       .  S
C2149      C2150   1.401       .  A
C2149      C2154   1.402       .  A
C2150      C2151   1.396       .  A
C2150      H2163   1.083       .  S
C2151      C2152   1.415       .  A
C2151      H2164   1.077       .  S
C2152      C2158   1.432       .  A
C2152      C2153   1.423       .  A
C2153      C2155   1.399       .  A
C2153      C2154   1.407       .  A
C2154      H2165   1.084       .  S
C2155      C2156   1.391       .  A
C2155      H2166   1.084       .  S
C2156      C2157   1.401       .  A
C2156      H2167   1.084       .  S
C2157      C2158   1.420       .  A
C2157      C2162   1.407       .  A
C2158      C2159   1.412       .  A
C2159      C2160   1.395       .  A
C2159      H2168   1.077       .  S
C2160      C2161   1.410       .  A
C2160      H2169   1.083       .  S
C2161      C2162   1.412       .  A
C2162      H2170   1.079       .  S
C2171      C2172   1.410       .  A
C2171      C2176   1.414       .  A
C2172      C2173   1.400       .  A
C2172      H2185   1.078       .  S
C2173      C2174   1.413       .  A
C2173      H2186   1.078       .  S
C2174      C2180   1.432       .  A
C2174      C2175   1.418       .  A
C2175      C2177   1.400       .  A
C2175      C2176   1.405       .  A
C2176      H2187   1.084       .  S
C2177      C2178   1.392       .  A
C2177      H2188   1.084       .  S
C2178      C2179   1.400       .  A
C2178      H2189   1.084       .  S
C2179      C2180   1.423       .  A
C2179      C2184   1.408       .  A
C2180      C2181   1.414       .  A
C2181      C2182   1.398       .  A
C2181      H2190   1.078       .  S
C2182      C2183   1.401       .  A
C2182      H2191   1.083       .  S
C2183      C2184   1.402       .  A
C2184      H2192   1.084       .  S
C2193      C2194   1.409       .  A
C2193      C2198   1.412       .  A
C2194      C2195   1.388       .  A
C2194      H2207   1.084       .  S
C2195      C2196   1.409       .  A
C2195      H2208   1.077       .  S
C2196      C2202   1.428       .  A
C2196      C2197   1.420       .  A
C2197      C2199   1.402       .  A
C2197      C2198   1.412       .  A
C2198      H2209   1.079       .  S
C2199      C2200   1.396       .  A
C2199      H2210   1.084       .  S
C2200      C2201   1.401       .  A
C2200      H2211   1.084       .  S
C2201      C2202   1.422       .  A
C2201      C2206   1.414       .  A
C2202      C2203   1.410       .  A
C2203      C2204   1.389       .  A
C2203      H2212   1.077       .  S
C2204      C2205   1.404       .  A
C2204      H2213   1.083       .  S
C2205      C2206   1.405       .  A
C2206      H2214   1.084       .  S
C2215      C2216   1.402       .  A
C2215      C2220   1.402       .  A
C2216      C2217   1.401       .  A
C2216      H2229   1.083       .  S
C2217      C2218   1.416       .  A
C2217      H2230   1.077       .  S
C2218      C2224   1.433       .  A
C2218      C2219   1.422       .  A
C2219      C2221   1.398       .  A
C2219      C2220   1.403       .  A
C2220      H2231   1.084       .  S
C2221      C2222   1.388       .  A
C2221      H2232   1.084       .  S
C2222      C2223   1.400       .  A
C2222      H2233   1.084       .  S
C2223      C2224   1.420       .  A
C2223      C2228   1.405       .  A
C2224      C2225   1.412       .  A
C2225      C2226   1.398       .  A
C2225      H2234   1.077       .  S
C2226      C2227   1.411       .  A
C2226      H2235   1.083       .  S
C2227      C2228   1.411       .  A
C2228      H2236   1.078       .  S
C2237      C2238   1.411       .  A
C2237      C2242   1.411       .  A
C2238      C2239   1.394       .  A
C2238      H2251   1.080       .  S
C2239      C2240   1.412       .  A
C2239      H2252   1.077       .  S
C2240      C2246   1.430       .  A
C2240      C2241   1.420       .  A
C2241      C2243   1.400       .  A
C2241      C2242   1.405       .  A
C2242      H2253   1.084       .  S
C2243      C2244   1.391       .  A
C2243      H2254   1.084       .  S
C2244      C2245   1.400       .  A
C2244      H2255   1.084       .  S
C2245      C2246   1.422       .  A
C2245      C2250   1.407       .  A
C2246      C2247   1.414       .  A
C2247      C2248   1.395       .  A
C2247      H2256   1.077       .  S
C2248      C2249   1.401       .  A
C2248      H2257   1.083       .  S
C2249      C2250   1.403       .  A
C2250      H2258   1.084       .  S
C2259      C2260   1.397       .  A
C2259      C2264   1.400       .  A
C2260      C2261   1.399       .  A
C2260      H2273   1.083       .  S
C2261      C2262   1.417       .  A
C2261      H2274   1.078       .  S
C2262      C2268   1.430       .  A
C2262      C2263   1.421       .  A
C2263      C2265   1.400       .  A
C2263      C2264   1.405       .  A
C2264      H2275   1.085       .  S
C2265      C2266   1.392       .  A
C2265      H2276   1.084       .  S
C2266      C2267   1.400       .  A
C2266      H2277   1.084       .  S
C2267      C2268   1.421       .  A
C2267      C2272   1.407       .  A
C2268      C2269   1.409       .  A
C2269      C2270   1.395       .  A
C2269      H2278   1.078       .  S
C2270      C2271   1.414       .  A
C2270      H2279   1.080       .  S
C2271      C2272   1.410       .  A
C2272      H2280   1.084       .  S
C2281      C2282   1.398       .  A
C2281      C2286   1.399       .  A
C2282      C2283   1.395       .  A
C2282      H2295   1.084       .  S
C2283      C2284   1.415       .  A
C2283      H2296   1.077       .  S
C2284      C2290   1.429       .  A
C2284      C2285   1.424       .  A
C2285      C2287   1.399       .  A
C2285      C2286   1.405       .  A
C2286      H2297   1.085       .  S
C2287      C2288   1.389       .  A
C2287      H2298   1.084       .  S
C2288      C2289   1.400       .  A
C2288      H2299   1.084       .  S
C2289      C2290   1.419       .  A
C2289      C2294   1.402       .  A
C2290      C2291   1.413       .  A
C2291      C2292   1.396       .  A
C2291      H2300   1.077       .  S
C2292      C2293   1.409       .  A
C2292      H2301   1.079       .  S
C2293      C2294   1.410       .  A
C2294      H2302   1.085       .  S
C2303      C2304   1.401       .  A
C2303      C2308   1.404       .  A
C2304      C2305   1.397       .  A
C2304      H2317   1.083       .  S
C2305      C2306   1.415       .  A
C2305      H2318   1.077       .  S
C2306      C2312   1.431       .  A
C2306      C2307   1.421       .  A
C2307      C2309   1.400       .  A
C2307      C2308   1.408       .  A
C2308      H2319   1.084       .  S
C2309      C2310   1.392       .  A
C2309      H2320   1.084       .  S
C2310      C2311   1.400       .  A
C2310      H2321   1.084       .  S
C2311      C2312   1.420       .  A
C2311      C2316   1.408       .  A
C2312      C2313   1.410       .  A
C2313      C2314   1.395       .  A
C2313      H2322   1.077       .  S
C2314      C2315   1.412       .  A
C2314      H2323   1.080       .  S
C2315      C2316   1.410       .  A
C2316      H2324   1.084       .  S
C2325      C2326   1.401       .  A
C2325      C2330   1.403       .  A
C2326      C2327   1.393       .  A
C2326      H2339   1.083       .  S
C2327      C2328   1.413       .  A
C2327      H2340   1.078       .  S
C2328      C2334   1.426       .  A
C2328      C2329   1.422       .  A
C2329      C2331   1.401       .  A
C2329      C2330   1.407       .  A
C2330      H2341   1.084       .  S
C2331      C2332   1.393       .  A
C2331      H2342   1.084       .  S
C2332      C2333   1.400       .  A
C2332      H2343   1.084       .  S
C2333      C2334   1.418       .  A
C2333      C2338   1.405       .  A
C2334      C2335   1.411       .  A
C2335      C2336   1.393       .  A
C2335      H2344   1.078       .  S
C2336      C2337   1.409       .  A
C2336      H2345   1.080       .  S
C2337      C2338   1.412       .  A
C2338      H2346   1.084       .  S
C2347      C2348   1.413       .  A
C2347      C2352   1.409       .  A
C2348      C2349   1.400       .  A
C2348      H2361   1.083       .  S
C2349      C2350   1.412       .  A
C2349      H2362   1.078       .  S
C2350      C2356   1.434       .  A
C2350      C2351   1.422       .  A
C2351      C2353   1.398       .  A
C2351      C2352   1.404       .  A
C2352      H2363   1.080       .  S
C2353      C2354   1.387       .  A
C2353      H2364   1.084       .  S
C2354      C2355   1.399       .  A
C2354      H2365   1.084       .  S
C2355      C2356   1.421       .  A
C2355      C2360   1.401       .  A
C2356      C2357   1.419       .  A
C2357      C2358   1.404       .  A
C2357      H2366   1.078       .  S
C2358      C2359   1.401       .  A
C2358      H2367   1.083       .  S
C2359      C2360   1.402       .  A
C2360      H2368   1.085       .  S
C2369      C2370   1.411       .  A
C2369      C2374   1.412       .  A
C2370      C2371   1.403       .  A
C2370      H2383   1.083       .  S
C2371      C2372   1.414       .  A
C2371      H2384   1.078       .  S
C2372      C2378   1.436       .  A
C2372      C2373   1.419       .  A
C2373      C2375   1.400       .  A
C2373      C2374   1.403       .  A
C2374      H2385   1.078       .  S
C2375      C2376   1.387       .  A
C2375      H2386   1.084       .  S
C2376      C2377   1.398       .  A
C2376      H2387   1.084       .  S
C2377      C2378   1.423       .  A
C2377      C2382   1.404       .  A
C2378      C2379   1.417       .  A
C2379      C2380   1.404       .  A
C2379      H2388   1.078       .  S
C2380      C2381   1.403       .  A
C2380      H2389   1.083       .  S
C2381      C2382   1.402       .  A
C2382      H2390   1.085       .  S
C2391      C2392   1.400       .  A
C2391      C2396   1.400       .  A
C2392      C2393   1.401       .  A
C2392      H2405   1.083       .  S
C2393      C2394   1.417       .  A
C2393      H2406   1.078       .  S
C2394      C2400   1.433       .  A
C2394      C2395   1.422       .  A
C2395      C2397   1.398       .  A
C2395      C2396   1.403       .  A
C2396      H2407   1.085       .  S
C2397      C2398   1.388       .  A
C2397      H2408   1.084       .  S
C2398      C2399   1.400       .  A
C2398      H2409   1.084       .  S
C2399      C2400   1.420       .  A
C2399      C2404   1.405       .  A
C2400      C2401   1.412       .  A
C2401      C2402   1.398       .  A
C2401      H2410   1.078       .  S
C2402      C2403   1.412       .  A
C2402      H2411   1.083       .  S
C2403      C2404   1.412       .  A
C2404      H2412   1.078       .  S
C2413      C2414   1.403       .  A
C2413      C2418   1.403       .  A
C2414      C2415   1.407       .  A
C2414      H2427   1.083       .  S
C2415      C2416   1.419       .  A
C2415      H2428   1.078       .  S
C2416      C2422   1.435       .  A
C2416      C2417   1.421       .  A
C2417      C2419   1.398       .  A
C2417      C2418   1.399       .  A
C2418      H2429   1.085       .  S
C2419      C2420   1.385       .  A
C2419      H2430   1.084       .  S
C2420      C2421   1.397       .  A
C2420      H2431   1.084       .  S
C2421      C2422   1.421       .  A
C2421      C2426   1.400       .  A
C2422      C2423   1.415       .  A
C2423      C2424   1.404       .  A
C2423      H2432   1.078       .  S
C2424      C2425   1.411       .  A
C2424      H2433   1.080       .  S
C2425      C2426   1.408       .  A
C2426      H2434   1.084       .  S
C2435      C2436   1.400       .  A
C2435      C2440   1.399       .  A
C2436      C2437   1.400       .  A
C2436      H2449   1.083       .  S
C2437      C2438   1.416       .  A
C2437      H2450   1.078       .  S
C2438      C2444   1.431       .  A
C2438      C2439   1.423       .  A
C2439      C2441   1.398       .  A
C2439      C2440   1.401       .  A
C2440      H2451   1.085       .  S
C2441      C2442   1.386       .  A
C2441      H2452   1.084       .  S
C2442      C2443   1.399       .  A
C2442      H2453   1.084       .  S
C2443      C2444   1.419       .  A
C2443      C2448   1.400       .  A
C2444      C2445   1.414       .  A
C2445      C2446   1.400       .  A
C2445      H2454   1.078       .  S
C2446      C2447   1.408       .  A
C2446      H2455   1.083       .  S
C2447      C2448   1.412       .  A
C2448      H2456   1.081       .  S
C2457      C2458   1.411       .  A
C2457      C2462   1.411       .  A
C2458      C2459   1.400       .  A
C2458      H2471   1.083       .  S
C2459      C2460   1.412       .  A
C2459      H2472   1.078       .  S
C2460      C2466   1.432       .  A
C2460      C2461   1.420       .  A
C2461      C2463   1.399       .  A
C2461      C2462   1.403       .  A
C2462      H2473   1.081       .  S
C2463      C2464   1.387       .  A
C2463      H2474   1.084       .  S
C2464      C2465   1.398       .  A
C2464      H2475   1.084       .  S
C2465      C2466   1.421       .  A
C2465      C2470   1.400       .  A
C2466      C2467   1.418       .  A
C2467      C2468   1.403       .  A
C2467      H2476   1.078       .  S
C2468      C2469   1.400       .  A
C2468      H2477   1.083       .  S
C2469      C2470   1.400       .  A
C2470      H2478   1.085       .  S
C2479      C2480   1.409       .  A
C2479      C2484   1.411       .  A
C2480      C2481   1.399       .  A
C2480      H2493   1.079       .  S
C2481      C2482   1.414       .  A
C2481      H2494   1.078       .  S
C2482      C2488   1.431       .  A
C2482      C2483   1.418       .  A
C2483      C2485   1.400       .  A
C2483      C2484   1.403       .  A
C2484      H2495   1.084       .  S
C2485      C2486   1.390       .  A
C2485      H2496   1.084       .  S
C2486      C2487   1.400       .  A
C2486      H2497   1.084       .  S
C2487      C2488   1.422       .  A
C2487      C2492   1.406       .  A
C2488      C2489   1.414       .  A
C2489      C2490   1.398       .  A
C2489      H2498   1.078       .  S
C2490      C2491   1.403       .  A
C2490      H2499   1.083       .  S
C2491      C2492   1.404       .  A
C2492      H2500   1.084       .  S
C2501      C2502   1.411       .  A
C2501      C2506   1.409       .  A
C2502      C2503   1.399       .  A
C2502      H2515   1.083       .  S
C2503      C2504   1.412       .  A
C2503      H2516   1.078       .  S
C2504      C2510   1.433       .  A
C2504      C2505   1.421       .  A
C2505      C2507   1.399       .  A
C2505      C2506   1.405       .  A
C2506      H2517   1.079       .  S
C2507      C2508   1.388       .  A
C2507      H2518   1.084       .  S
C2508      C2509   1.399       .  A
C2508      H2519   1.084       .  S
C2509      C2510   1.421       .  A
C2509      C2514   1.403       .  A
C2510      C2511   1.418       .  A
C2511      C2512   1.403       .  A
C2511      H2520   1.078       .  S
C2512      C2513   1.401       .  A
C2512      H2521   1.083       .  S
C2513      C2514   1.402       .  A
C2514      H2522   1.085       .  S
C2523      C2524   1.409       .  A
C2523      C2528   1.413       .  A
C2524      C2525   1.389       .  A
C2524      H2537   1.083       .  S
C2525      C2526   1.410       .  A
C2525      H2538   1.076       .  S
C2526      C2532   1.429       .  A
C2526      C2527   1.420       .  A
C2527      C2529   1.402       .  A
C2527      C2528   1.413       .  A
C2528      H2539   1.079       .  S
C2529      C2530   1.395       .  A
C2529      H2540   1.084       .  S
C2530      C2531   1.401       .  A
C2530      H2541   1.084       .  S
C2531      C2532   1.422       .  A
C2531      C2536   1.413       .  A
C2532      C2533   1.411       .  A
C2533      C2534   1.390       .  A
C2533      H2542   1.076       .  S
C2534      C2535   1.403       .  A
C2534      H2543   1.083       .  S
C2535      C2536   1.405       .  A
C2536      H2544   1.084       .  S
C2545      C2546   1.408       .  A
C2545      C2550   1.415       .  A
C2546      C2547   1.397       .  A
C2546      H2559   1.083       .  S
C2547      C2548   1.412       .  A
C2547      H2560   1.078       .  S
C2548      C2554   1.429       .  A
C2548      C2549   1.417       .  A
C2549      C2551   1.402       .  A
C2549      C2550   1.405       .  A
C2550      H2561   1.082       .  S
C2551      C2552   1.392       .  A
C2551      H2562   1.084       .  S
C2552      C2553   1.400       .  A
C2552      H2563   1.084       .  S
C2553      C2554   1.422       .  A
C2553      C2558   1.407       .  A
C2554      C2555   1.412       .  A
C2555      C2556   1.396       .  A
C2555      H2564   1.078       .  S
C2556      C2557   1.401       .  A
C2556      H2565   1.083       .  S
C2557      C2558   1.403       .  A
C2558      H2566   1.084       .  S
C2567      C2568   1.411       .  A
C2567      C2572   1.414       .  A
C2568      C2569   1.396       .  A
C2568      H2581   1.083       .  S
C2569      C2570   1.412       .  A
C2569      H2582   1.077       .  S
C2570      C2576   1.431       .  A
C2570      C2571   1.419       .  A
C2571      C2573   1.401       .  A
C2571      C2572   1.407       .  A
C2572      H2583   1.078       .  S
C2573      C2574   1.391       .  A
C2573      H2584   1.084       .  S
C2574      C2575   1.399       .  A
C2574      H2585   1.084       .  S
C2575      C2576   1.424       .  A
C2575      C2580   1.407       .  A
C2576      C2577   1.415       .  A
C2577      C2578   1.395       .  A
C2577      H2586   1.077       .  S
C2578      C2579   1.396       .  A
C2578      H2587   1.084       .  S
C2579      C2580   1.397       .  A
C2580      H2588   1.085       .  S
C2589      C2590   1.412       .  A
C2589      C2594   1.413       .  A
C2590      C2591   1.404       .  A
C2590      H2603   1.083       .  S
C2591      C2592   1.414       .  A
C2591      H2604   1.078       .  S
C2592      C2598   1.437       .  A
C2592      C2593   1.420       .  A
C2593      C2595   1.400       .  A
C2593      C2594   1.405       .  A
C2594      H2605   1.078       .  S
C2595      C2596   1.388       .  A
C2595      H2606   1.084       .  S
C2596      C2597   1.398       .  A
C2596      H2607   1.084       .  S
C2597      C2598   1.423       .  A
C2597      C2602   1.405       .  A
C2598      C2599   1.418       .  A
C2599      C2600   1.406       .  A
C2599      H2608   1.078       .  S
C2600      C2601   1.401       .  A
C2600      H2609   1.083       .  S
C2601      C2602   1.400       .  A
C2602      H2610   1.085       .  S
C2611      C2612   1.410       .  A
C2611      C2616   1.411       .  A
C2612      C2613   1.392       .  A
C2612      H2625   1.083       .  S
C2613      C2614   1.410       .  A
C2613      H2626   1.077       .  S
C2614      C2620   1.432       .  A
C2614      C2615   1.422       .  A
C2615      C2617   1.401       .  A
C2615      C2616   1.413       .  A
C2616      H2627   1.081       .  S
C2617      C2618   1.394       .  A
C2617      H2628   1.084       .  S
C2618      C2619   1.401       .  A
C2618      H2629   1.084       .  S
C2619      C2620   1.421       .  A
C2619      C2624   1.410       .  A
C2620      C2621   1.415       .  A
C2621      C2622   1.396       .  A
C2621      H2630   1.077       .  S
C2622      C2623   1.401       .  A
C2622      H2631   1.083       .  S
C2623      C2624   1.406       .  A
C2624      H2632   1.084       .  S
C2633      C2634   1.398       .  A
C2633      C2638   1.400       .  A
C2634      C2635   1.396       .  A
C2634      H2647   1.084       .  S
C2635      C2636   1.414       .  A
C2635      H2648   1.077       .  S
C2636      C2642   1.432       .  A
C2636      C2637   1.425       .  A
C2637      C2639   1.400       .  A
C2637      C2638   1.413       .  A
C2638      H2649   1.084       .  S
C2639      C2640   1.393       .  A
C2639      H2650   1.084       .  S
C2640      C2641   1.402       .  A
C2640      H2651   1.084       .  S
C2641      C2642   1.419       .  A
C2641      C2646   1.410       .  A
C2642      C2643   1.413       .  A
C2643      C2644   1.397       .  A
C2643      H2652   1.077       .  S
C2644      C2645   1.409       .  A
C2644      H2653   1.083       .  S
C2645      C2646   1.414       .  A
C2646      H2654   1.081       .  S
C2655      C2656   1.400       .  A
C2655      C2660   1.403       .  A
C2656      C2657   1.399       .  A
C2656      H2669   1.083       .  S
C2657      C2658   1.417       .  A
C2657      H2670   1.077       .  S
C2658      C2664   1.431       .  A
C2658      C2659   1.421       .  A
C2659      C2661   1.400       .  A
C2659      C2660   1.404       .  A
C2660      H2671   1.085       .  S
C2661      C2662   1.389       .  A
C2661      H2672   1.084       .  S
C2662      C2663   1.399       .  A
C2662      H2673   1.084       .  S
C2663      C2664   1.421       .  A
C2663      C2668   1.404       .  A
C2664      C2665   1.411       .  A
C2665      C2666   1.396       .  A
C2665      H2674   1.077       .  S
C2666      C2667   1.411       .  A
C2666      H2675   1.080       .  S
C2667      C2668   1.409       .  A
C2668      H2676   1.084       .  S
C2677      C2678   1.409       .  A
C2677      C2682   1.415       .  A
C2678      C2679   1.394       .  A
C2678      H2691   1.083       .  S
C2679      C2680   1.412       .  A
C2679      H2692   1.077       .  S
C2680      C2686   1.431       .  A
C2680      C2681   1.419       .  A
C2681      C2683   1.402       .  A
C2681      C2682   1.409       .  A
C2682      H2693   1.080       .  S
C2683      C2684   1.393       .  A
C2683      H2694   1.084       .  S
C2684      C2685   1.400       .  A
C2684      H2695   1.084       .  S
C2685      C2686   1.423       .  A
C2685      C2690   1.411       .  A
C2686      C2687   1.413       .  A
C2687      C2688   1.394       .  A
C2687      H2696   1.077       .  S
C2688      C2689   1.401       .  A
C2688      H2697   1.083       .  S
C2689      C2690   1.404       .  A
C2690      H2698   1.084       .  S
C2699      C2700   1.413       .  A
C2699      C2704   1.408       .  A
C2700      C2701   1.405       .  A
C2700      H2713   1.079       .  S
C2701      C2702   1.413       .  A
C2701      H2714   1.078       .  S
C2702      C2708   1.437       .  A
C2702      C2703   1.421       .  A
C2703      C2705   1.397       .  A
C2703      C2704   1.402       .  A
C2704      H2715   1.085       .  S
C2705      C2706   1.386       .  A
C2705      H2716   1.084       .  S
C2706      C2707   1.399       .  A
C2706      H2717   1.084       .  S
C2707      C2708   1.420       .  A
C2707      C2712   1.400       .  A
C2708      C2709   1.420       .  A
C2709      C2710   1.408       .  A
C2709      H2718   1.078       .  S
C2710      C2711   1.403       .  A
C2710      H2719   1.083       .  S
C2711      C2712   1.405       .  A
C2712      H2720   1.084       .  S
C2721      C2722   1.411       .  A
C2721      C2726   1.410       .  A
C2722      C2723   1.400       .  A
C2722      H2735   1.083       .  S
C2723      C2724   1.413       .  A
C2723      H2736   1.078       .  S
C2724      C2730   1.434       .  A
C2724      C2725   1.421       .  A
C2725      C2727   1.399       .  A
C2725      C2726   1.405       .  A
C2726      H2737   1.080       .  S
C2727      C2728   1.388       .  A
C2727      H2738   1.084       .  S
C2728      C2729   1.399       .  A
C2728      H2739   1.084       .  S
C2729      C2730   1.422       .  A
C2729      C2734   1.403       .  A
C2730      C2731   1.418       .  A
C2731      C2732   1.403       .  A
C2731      H2740   1.078       .  S
C2732      C2733   1.399       .  A
C2732      H2741   1.083       .  S
C2733      C2734   1.400       .  A
C2734      H2742   1.085       .  S
C2743      C2744   1.411       .  A
C2743      C2748   1.413       .  A
C2744      C2745   1.397       .  A
C2744      H2757   1.078       .  S
C2745      C2746   1.411       .  A
C2745      H2758   1.078       .  S
C2746      C2752   1.430       .  A
C2746      C2747   1.418       .  A
C2747      C2749   1.400       .  A
C2747      C2748   1.405       .  A
C2748      H2759   1.084       .  S
C2749      C2750   1.392       .  A
C2749      H2760   1.084       .  S
C2750      C2751   1.400       .  A
C2750      H2761   1.084       .  S
C2751      C2752   1.422       .  A
C2751      C2756   1.407       .  A
C2752      C2753   1.414       .  A
C2753      C2754   1.397       .  A
C2753      H2762   1.078       .  S
C2754      C2755   1.401       .  A
C2754      H2763   1.083       .  S
C2755      C2756   1.403       .  A
C2756      H2764   1.084       .  S
C2765      C2766   1.410       .  A
C2765      C2770   1.411       .  A
C2766      C2767   1.394       .  A
C2766      H2779   1.079       .  S
C2767      C2768   1.411       .  A
C2767      H2780   1.078       .  S
C2768      C2774   1.428       .  A
C2768      C2769   1.419       .  A
C2769      C2771   1.400       .  A
C2769      C2770   1.405       .  A
C2770      H2781   1.084       .  S
C2771      C2772   1.392       .  A
C2771      H2782   1.084       .  S
C2772      C2773   1.400       .  A
C2772      H2783   1.084       .  S
C2773      C2774   1.423       .  A
C2773      C2778   1.407       .  A
C2774      C2775   1.415       .  A
C2775      C2776   1.394       .  A
C2775      H2784   1.077       .  S
C2776      C2777   1.397       .  A
C2776      H2785   1.084       .  S
C2777      C2778   1.399       .  A
C2778      H2786   1.085       .  S
C2787      C2788   1.408       .  A
C2787      C2792   1.413       .  A
C2788      C2789   1.395       .  A
C2788      H2801   1.083       .  S
C2789      C2790   1.413       .  A
C2789      H2802   1.077       .  S
C2790      C2796   1.430       .  A
C2790      C2791   1.419       .  A
C2791      C2793   1.401       .  A
C2791      C2792   1.404       .  A
C2792      H2803   1.080       .  S
C2793      C2794   1.389       .  A
C2793      H2804   1.084       .  S
C2794      C2795   1.398       .  A
C2794      H2805   1.084       .  S
C2795      C2796   1.424       .  A
C2795      C2800   1.405       .  A
C2796      C2797   1.415       .  A
C2797      C2798   1.395       .  A
C2797      H2806   1.077       .  S
C2798      C2799   1.395       .  A
C2798      H2807   1.084       .  S
C2799      C2800   1.396       .  A
C2800      H2808   1.085       .  S
C2809      C2810   1.409       .  A
C2809      C2814   1.410       .  A
C2810      C2811   1.398       .  A
C2810      H2823   1.083       .  S
C2811      C2812   1.412       .  A
C2811      H2824   1.077       .  S
C2812      C2818   1.433       .  A
C2812      C2813   1.422       .  A
C2813      C2815   1.400       .  A
C2813      C2814   1.406       .  A
C2814      H2825   1.081       .  S
C2815      C2816   1.389       .  A
C2815      H2826   1.084       .  S
C2816      C2817   1.399       .  A
C2816      H2827   1.084       .  S
C2817      C2818   1.422       .  A
C2817      C2822   1.403       .  A
C2818      C2819   1.419       .  A
C2819      C2820   1.403       .  A
C2819      H2828   1.078       .  S
C2820      C2821   1.398       .  A
C2820      H2829   1.083       .  S
C2821      C2822   1.400       .  A
C2822      H2830   1.085       .  S
C2831      C2832   1.411       .  A
C2831      C2836   1.413       .  A
C2832      C2833   1.400       .  A
C2832      H2845   1.083       .  S
C2833      C2834   1.412       .  A
C2833      H2846   1.078       .  S
C2834      C2840   1.435       .  A
C2834      C2835   1.420       .  A
C2835      C2837   1.401       .  A
C2835      C2836   1.408       .  A
C2836      H2847   1.081       .  S
C2837      C2838   1.391       .  A
C2837      H2848   1.084       .  S
C2838      C2839   1.400       .  A
C2838      H2849   1.084       .  S
C2839      C2840   1.422       .  A
C2839      C2844   1.408       .  A
C2840      C2841   1.417       .  A
C2841      C2842   1.403       .  A
C2841      H2850   1.078       .  S
C2842      C2843   1.401       .  A
C2842      H2851   1.083       .  S
C2843      C2844   1.404       .  A
C2844      H2852   1.085       .  S
C2853      C2854   1.402       .  A
C2853      C2858   1.403       .  A
C2854      C2855   1.395       .  A
C2854      H2867   1.083       .  S
C2855      C2856   1.413       .  A
C2855      H2868   1.077       .  S
C2856      C2862   1.429       .  A
C2856      C2857   1.423       .  A
C2857      C2859   1.400       .  A
C2857      C2858   1.406       .  A
C2858      H2869   1.084       .  S
C2859      C2860   1.390       .  A
C2859      H2870   1.084       .  S
C2860      C2861   1.400       .  A
C2860      H2871   1.084       .  S
C2861      C2862   1.418       .  A
C2861      C2866   1.403       .  A
C2862      C2863   1.413       .  A
C2863      C2864   1.397       .  A
C2863      H2872   1.078       .  S
C2864      C2865   1.407       .  A
C2864      H2873   1.080       .  S
C2865      C2866   1.412       .  A
C2866      H2874   1.084       .  S
C2875      C2876   1.408       .  A
C2875      C2880   1.416       .  A
C2876      C2877   1.389       .  A
C2876      H2889   1.084       .  S
C2877      C2878   1.410       .  A
C2877      H2890   1.077       .  S
C2878      C2884   1.428       .  A
C2878      C2879   1.419       .  A
C2879      C2881   1.404       .  A
C2879      C2880   1.416       .  A
C2880      H2891   1.080       .  S
C2881      C2882   1.399       .  A
C2881      H2892   1.084       .  S
C2882      C2883   1.402       .  A
C2882      H2893   1.084       .  S
C2883      C2884   1.423       .  A
C2883      C2888   1.419       .  A
C2884      C2885   1.408       .  A
C2885      C2886   1.387       .  A
C2885      H2894   1.077       .  S
C2886      C2887   1.403       .  A
C2886      H2895   1.084       .  S
C2887      C2888   1.407       .  A
C2888      H2896   1.084       .  S
C2897      C2898   1.408       .  A
C2897      C2902   1.414       .  A
C2898      C2899   1.392       .  A
C2898      H2911   1.083       .  S
C2899      C2900   1.412       .  A
C2899      H2912   1.077       .  S
C2900      C2906   1.429       .  A
C2900      C2901   1.419       .  A
C2901      C2903   1.402       .  A
C2901      C2902   1.410       .  A
C2902      H2913   1.080       .  S
C2903      C2904   1.395       .  A
C2903      H2914   1.084       .  S
C2904      C2905   1.401       .  A
C2904      H2915   1.084       .  S
C2905      C2906   1.424       .  A
C2905      C2910   1.414       .  A
C2906      C2907   1.411       .  A
C2907      C2908   1.390       .  A
C2907      H2916   1.077       .  S
C2908      C2909   1.402       .  A
C2908      H2917   1.084       .  S
C2909      C2910   1.404       .  A
C2910      H2918   1.084       .  S
C2919      C2920   1.403       .  A
C2919      C2924   1.403       .  A
C2920      C2921   1.398       .  A
C2920      H2933   1.083       .  S
C2921      C2922   1.414       .  A
C2921      H2934   1.077       .  S
C2922      C2928   1.432       .  A
C2922      C2923   1.422       .  A
C2923      C2925   1.400       .  A
C2923      C2924   1.407       .  A
C2924      H2935   1.084       .  S
C2925      C2926   1.390       .  A
C2925      H2936   1.084       .  S
C2926      C2927   1.399       .  A
C2926      H2937   1.084       .  S
C2927      C2928   1.420       .  A
C2927      C2932   1.405       .  A
C2928      C2929   1.413       .  A
C2929      C2930   1.398       .  A
C2929      H2938   1.077       .  S
C2930      C2931   1.411       .  A
C2930      H2939   1.081       .  S
C2931      C2932   1.409       .  A
C2932      H2940   1.083       .  S
C2941      C2942   1.400       .  A
C2941      C2946   1.406       .  A
C2942      C2943   1.389       .  A
C2942      H2955   1.084       .  S
C2943      C2944   1.413       .  A
C2943      H2956   1.076       .  S
C2944      C2950   1.429       .  A
C2944      C2945   1.422       .  A
C2945      C2947   1.402       .  A
C2945      C2946   1.414       .  A
C2946      H2957   1.084       .  S
C2947      C2948   1.397       .  A
C2947      H2958   1.084       .  S
C2948      C2949   1.402       .  A
C2948      H2959   1.084       .  S
C2949      C2950   1.420       .  A
C2949      C2954   1.414       .  A
C2950      C2951   1.407       .  A
C2951      C2952   1.387       .  A
C2951      H2960   1.076       .  S
C2952      C2953   1.412       .  A
C2952      H2961   1.081       .  S
C2953      C2954   1.412       .  A
C2954      H2962   1.084       .  S
C2963      C2964   1.402       .  A
C2963      C2968   1.397       .  A
C2964      C2965   1.407       .  A
C2964      H2977   1.083       .  S
C2965      C2966   1.418       .  A
C2965      H2978   1.078       .  S
C2966      C2972   1.439       .  A
C2966      C2967   1.424       .  A
C2967      C2969   1.397       .  A
C2967      C2968   1.404       .  A
C2968      H2979   1.085       .  S
C2969      C2970   1.386       .  A
C2969      H2980   1.084       .  S
C2970      C2971   1.399       .  A
C2970      H2981   1.084       .  S
C2971      C2972   1.419       .  A
C2971      C2976   1.402       .  A
C2972      C2973   1.417       .  A
C2973      C2974   1.408       .  A
C2973      H2982   1.078       .  S
C2974      C2975   1.412       .  A
C2974      H2983   1.083       .  S
C2975      C2976   1.413       .  A
C2976      H2984   1.079       .  S
C2985      C2986   1.411       .  A
C2985      C2990   1.414       .  A
C2986      C2987   1.400       .  A
C2986      H2999   1.083       .  S
C2987      C2988   1.413       .  A
C2987      H3000   1.078       .  S
C2988      C2994   1.432       .  A
C2988      C2989   1.418       .  A
C2989      C2991   1.401       .  A
C2989      C2990   1.404       .  A
C2990      H3001   1.076       .  S
C2991      C2992   1.389       .  A
C2991      H3002   1.084       .  S
C2992      C2993   1.398       .  A
C2992      H3003   1.084       .  S
C2993      C2994   1.424       .  A
C2993      C2998   1.406       .  A
C2994      C2995   1.414       .  A
C2995      C2996   1.398       .  A
C2995      H3004   1.078       .  S
C2996      C2997   1.402       .  A
C2996      H3005   1.083       .  S
C2997      C2998   1.400       .  A
C2998      H3006   1.085       .  S
C3007      C3008   1.404       .  A
C3007      C3012   1.402       .  A
C3008      C3009   1.406       .  A
C3008      H3021   1.083       .  S
C3009      C3010   1.417       .  A
C3009      H3022   1.078       .  S
C3010      C3016   1.437       .  A
C3010      C3011   1.423       .  A
C3011      C3013   1.398       .  A
C3011      C3012   1.404       .  A
C3012      H3023   1.084       .  S
C3013      C3014   1.386       .  A
C3013      H3024   1.084       .  S
C3014      C3015   1.399       .  A
C3014      H3025   1.084       .  S
C3015      C3016   1.419       .  A
C3015      C3020   1.402       .  A
C3016      C3017   1.416       .  A
C3017      C3018   1.406       .  A
C3017      H3026   1.078       .  S
C3018      C3019   1.412       .  A
C3018      H3027   1.083       .  S
C3019      C3020   1.414       .  A
C3020      H3028   1.080       .  S
C3029      C3030   1.409       .  A
C3029      C3034   1.414       .  A
C3030      C3031   1.392       .  A
C3030      H3043   1.083       .  S
C3031      C3032   1.411       .  A
C3031      H3044   1.076       .  S
C3032      C3038   1.431       .  A
C3032      C3033   1.420       .  A
C3033      C3035   1.403       .  A
C3033      C3034   1.413       .  A
C3034      H3045   1.079       .  S
C3035      C3036   1.396       .  A
C3035      H3046   1.084       .  S
C3036      C3037   1.401       .  A
C3036      H3047   1.084       .  S
C3037      C3038   1.423       .  A
C3037      C3042   1.415       .  A
C3038      C3039   1.411       .  A
C3039      C3040   1.391       .  A
C3039      H3048   1.077       .  S
C3040      C3041   1.403       .  A
C3040      H3049   1.083       .  S
C3041      C3042   1.406       .  A
C3042      H3050   1.084       .  S
C3051      C3052   1.401       .  A
C3051      C3056   1.402       .  A
C3052      C3053   1.395       .  A
C3052      H3065   1.083       .  S
C3053      C3054   1.414       .  A
C3053      H3066   1.078       .  S
C3054      C3060   1.429       .  A
C3054      C3055   1.422       .  A
C3055      C3057   1.400       .  A
C3055      C3056   1.407       .  A
C3056      H3067   1.084       .  S
C3057      C3058   1.392       .  A
C3057      H3068   1.084       .  S
C3058      C3059   1.400       .  A
C3058      H3069   1.084       .  S
C3059      C3060   1.419       .  A
C3059      C3064   1.406       .  A
C3060      C3061   1.410       .  A
C3061      C3062   1.394       .  A
C3061      H3070   1.078       .  S
C3062      C3063   1.412       .  A
C3062      H3071   1.079       .  S
C3063      C3064   1.411       .  A
C3064      H3072   1.084       .  S
C3073      C3074   1.409       .  A
C3073      C3078   1.409       .  A
C3074      C3075   1.391       .  A
C3074      H3087   1.083       .  S
C3075      C3076   1.410       .  A
C3075      H3088   1.077       .  S
C3076      C3082   1.430       .  A
C3076      C3077   1.422       .  A
C3077      C3079   1.400       .  A
C3077      C3078   1.410       .  A
C3078      H3089   1.080       .  S
C3079      C3080   1.392       .  A
C3079      H3090   1.084       .  S
C3080      C3081   1.400       .  A
C3080      H3091   1.084       .  S
C3081      C3082   1.422       .  A
C3081      C3086   1.408       .  A
C3082      C3083   1.415       .  A
C3083      C3084   1.395       .  A
C3083      H3092   1.077       .  S
C3084      C3085   1.401       .  A
C3084      H3093   1.083       .  S
C3085      C3086   1.404       .  A
C3086      H3094   1.084       .  S
C3095      C3096   1.412       .  A
C3095      C3100   1.410       .  A
C3096      C3097   1.398       .  A
C3096      H3109   1.080       .  S
C3097      C3098   1.412       .  A
C3097      H3110   1.078       .  S
C3098      C3104   1.432       .  A
C3098      C3099   1.420       .  A
C3099      C3101   1.399       .  A
C3099      C3100   1.402       .  A
C3100      H3111   1.085       .  S
C3101      C3102   1.388       .  A
C3101      H3112   1.084       .  S
C3102      C3103   1.399       .  A
C3102      H3113   1.084       .  S
C3103      C3104   1.422       .  A
C3103      C3108   1.403       .  A
C3104      C3105   1.417       .  A
C3105      C3106   1.401       .  A
C3105      H3114   1.077       .  S
C3106      C3107   1.400       .  A
C3106      H3115   1.083       .  S
C3107      C3108   1.402       .  A
C3108      H3116   1.085       .  S
C3117      C3118   1.411       .  A
C3117      C3122   1.408       .  A
C3118      C3119   1.403       .  A
C3118      H3131   1.080       .  S
C3119      C3120   1.414       .  A
C3119      H3132   1.078       .  S
C3120      C3126   1.435       .  A
C3120      C3121   1.421       .  A
C3121      C3123   1.398       .  A
C3121      C3122   1.402       .  A
C3122      H3133   1.084       .  S
C3123      C3124   1.386       .  A
C3123      H3134   1.084       .  S
C3124      C3125   1.399       .  A
C3124      H3135   1.084       .  S
C3125      C3126   1.421       .  A
C3125      C3130   1.400       .  A
C3126      C3127   1.419       .  A
C3127      C3128   1.407       .  A
C3127      H3136   1.078       .  S
C3128      C3129   1.403       .  A
C3128      H3137   1.083       .  S
C3129      C3130   1.404       .  A
C3130      H3138   1.084       .  S
C3139      C3140   1.410       .  A
C3139      C3144   1.414       .  A
C3140      C3141   1.392       .  A
C3140      H3153   1.083       .  S
C3141      C3142   1.410       .  A
C3141      H3154   1.077       .  S
C3142      C3148   1.430       .  A
C3142      C3143   1.420       .  A
C3143      C3145   1.402       .  A
C3143      C3144   1.410       .  A
C3144      H3155   1.079       .  S
C3145      C3146   1.393       .  A
C3145      H3156   1.084       .  S
C3146      C3147   1.401       .  A
C3146      H3157   1.084       .  S
C3147      C3148   1.422       .  A
C3147      C3152   1.410       .  A
C3148      C3149   1.413       .  A
C3149      C3150   1.394       .  A
C3149      H3158   1.077       .  S
C3150      C3151   1.402       .  A
C3150      H3159   1.083       .  S
C3151      C3152   1.405       .  A
C3152      H3160   1.084       .  S
C3161      C3162   1.413       .  A
C3161      C3166   1.411       .  A
C3162      C3163   1.396       .  A
C3162      H3175   1.083       .  S
C3163      C3164   1.411       .  A
C3163      H3176   1.078       .  S
C3164      C3170   1.430       .  A
C3164      C3165   1.420       .  A
C3165      C3167   1.399       .  A
C3165      C3166   1.402       .  A
C3166      H3177   1.078       .  S
C3167      C3168   1.387       .  A
C3167      H3178   1.084       .  S
C3168      C3169   1.398       .  A
C3168      H3179   1.084       .  S
C3169      C3170   1.421       .  A
C3169      C3174   1.400       .  A
C3170      C3171   1.417       .  A
C3171      C3172   1.400       .  A
C3171      H3180   1.078       .  S
C3172      C3173   1.400       .  A
C3172      H3181   1.083       .  S
C3173      C3174   1.400       .  A
C3174      H3182   1.085       .  S
C3183      C3184   1.414       .  A
C3183      C3188   1.407       .  A
C3184      C3185   1.400       .  A
C3184      H3197   1.079       .  S
C3185      C3186   1.411       .  A
C3185      H3198   1.078       .  S
C3186      C3192   1.433       .  A
C3186      C3187   1.422       .  A
C3187      C3189   1.397       .  A
C3187      C3188   1.402       .  A
C3188      H3199   1.085       .  S
C3189      C3190   1.386       .  A
C3189      H3200   1.084       .  S
C3190      C3191   1.399       .  A
C3190      H3201   1.084       .  S
C3191      C3192   1.419       .  A
C3191      C3196   1.398       .  A
C3192      C3193   1.420       .  A
C3193      C3194   1.406       .  A
C3193      H3202   1.078       .  S
C3194      C3195   1.402       .  A
C3194      H3203   1.083       .  S
C3195      C3196   1.404       .  A
C3196      H3204   1.084       .  S
C3205      C3206   1.413       .  A
C3205      C3210   1.413       .  A
C3206      C3207   1.390       .  A
C3206      H3219   1.079       .  S
C3207      C3208   1.408       .  A
C3207      H3220   1.077       .  S
C3208      C3214   1.430       .  A
C3208      C3209   1.420       .  A
C3209      C3211   1.402       .  A
C3209      C3210   1.413       .  A
C3210      H3221   1.084       .  S
C3211      C3212   1.396       .  A
C3211      H3222   1.084       .  S
C3212      C3213   1.402       .  A
C3212      H3223   1.084       .  S
C3213      C3214   1.421       .  A
C3213      C3218   1.412       .  A
C3214      C3215   1.413       .  A
C3215      C3216   1.393       .  A
C3215      H3224   1.077       .  S
C3216      C3217   1.401       .  A
C3216      H3225   1.083       .  S
C3217      C3218   1.406       .  A
C3218      H3226   1.084       .  S
C3227      C3228   1.409       .  A
C3227      C3232   1.410       .  A
C3228      C3229   1.404       .  A
C3228      H3241   1.080       .  S
C3229      C3230   1.415       .  A
C3229      H3242   1.079       .  S
C3230      C3236   1.433       .  A
C3230      C3231   1.418       .  A
C3231      C3233   1.399       .  A
C3231      C3232   1.399       .  A
C3232      H3243   1.082       .  S
C3233      C3234   1.387       .  A
C3233      H3244   1.084       .  S
C3234      C3235   1.399       .  A
C3234      H3245   1.084       .  S
C3235      C3236   1.422       .  A
C3235      C3240   1.402       .  A
C3236      C3237   1.416       .  A
C3237      C3238   1.403       .  A
C3237      H3246   1.078       .  S
C3238      C3239   1.403       .  A
C3238      H3247   1.083       .  S
C3239      C3240   1.403       .  A
C3240      H3248   1.084       .  S
C3249      C3250   1.410       .  A
C3249      C3254   1.414       .  A
C3250      C3251   1.390       .  A
C3250      H3263   1.080       .  S
C3251      C3252   1.410       .  A
C3251      H3264   1.076       .  S
C3252      C3258   1.428       .  A
C3252      C3253   1.419       .  A
C3253      C3255   1.402       .  A
C3253      C3254   1.411       .  A
C3254      H3265   1.084       .  S
C3255      C3256   1.396       .  A
C3255      H3266   1.084       .  S
C3256      C3257   1.401       .  A
C3256      H3267   1.084       .  S
C3257      C3258   1.424       .  A
C3257      C3262   1.413       .  A
C3258      C3259   1.412       .  A
C3259      C3260   1.389       .  A
C3259      H3268   1.076       .  S
C3260      C3261   1.398       .  A
C3260      H3269   1.084       .  S
C3261      C3262   1.403       .  A
C3262      H3270   1.084       .  S
C3271      C3272   1.410       .  A
C3271      C3276   1.410       .  A
C3272      C3273   1.391       .  A
C3272      H3285   1.083       .  S
C3273      C3274   1.409       .  A
C3273      H3286   1.077       .  S
C3274      C3280   1.429       .  A
C3274      C3275   1.422       .  A
C3275      C3277   1.401       .  A
C3275      C3276   1.409       .  A
C3276      H3287   1.080       .  S
C3277      C3278   1.392       .  A
C3277      H3288   1.084       .  S
C3278      C3279   1.400       .  A
C3278      H3289   1.084       .  S
C3279      C3280   1.422       .  A
C3279      C3284   1.406       .  A
C3280      C3281   1.417       .  A
C3281      C3282   1.397       .  A
C3281      H3290   1.077       .  S
C3282      C3283   1.396       .  A
C3282      H3291   1.084       .  S
C3283      C3284   1.399       .  A
C3284      H3292   1.085       .  S
C3293      C3294   1.403       .  A
C3293      C3298   1.403       .  A
C3294      C3295   1.400       .  A
C3294      H3307   1.083       .  S
C3295      C3296   1.415       .  A
C3295      H3308   1.078       .  S
C3296      C3302   1.431       .  A
C3296      C3297   1.422       .  A
C3297      C3299   1.399       .  A
C3297      C3298   1.403       .  A
C3298      H3309   1.084       .  S
C3299      C3300   1.388       .  A
C3299      H3310   1.084       .  S
C3300      C3301   1.399       .  A
C3300      H3311   1.084       .  S
C3301      C3302   1.419       .  A
C3301      C3306   1.401       .  A
C3302      C3303   1.413       .  A
C3303      C3304   1.400       .  A
C3303      H3312   1.078       .  S
C3304      C3305   1.410       .  A
C3304      H3313   1.079       .  S
C3305      C3306   1.410       .  A
C3306      H3314   1.084       .  S
C3315      C3316   1.408       .  A
C3315      C3320   1.410       .  A
C3316      C3317   1.400       .  A
C3316      H3329   1.079       .  S
C3317      C3318   1.414       .  A
C3317      H3330   1.078       .  S
C3318      C3324   1.430       .  A
C3318      C3319   1.418       .  A
C3319      C3321   1.399       .  A
C3319      C3320   1.400       .  A
C3320      H3331   1.084       .  S
C3321      C3322   1.388       .  A
C3321      H3332   1.084       .  S
C3322      C3323   1.399       .  A
C3322      H3333   1.084       .  S
C3323      C3324   1.422       .  A
C3323      C3328   1.404       .  A
C3324      C3325   1.414       .  A
C3325      C3326   1.398       .  A
C3325      H3334   1.078       .  S
C3326      C3327   1.403       .  A
C3326      H3335   1.083       .  S
C3327      C3328   1.402       .  A
C3328      H3336   1.084       .  S
C3337      C3338   1.409       .  A
C3337      C3342   1.411       .  A
C3338      C3339   1.397       .  A
C3338      H3351   1.080       .  S
C3339      C3340   1.413       .  A
C3339      H3352   1.077       .  S
C3340      C3346   1.432       .  A
C3340      C3341   1.420       .  A
C3341      C3343   1.400       .  A
C3341      C3342   1.406       .  A
C3342      H3353   1.085       .  S
C3343      C3344   1.392       .  A
C3343      H3354   1.084       .  S
C3344      C3345   1.400       .  A
C3344      H3355   1.084       .  S
C3345      C3346   1.423       .  A
C3345      C3350   1.410       .  A
C3346      C3347   1.414       .  A
C3347      C3348   1.396       .  A
C3347      H3356   1.077       .  S
C3348      C3349   1.402       .  A
C3348      H3357   1.084       .  S
C3349      C3350   1.403       .  A
C3350      H3358   1.084       .  S
C3359      C3360   1.411       .  A
C3359      C3364   1.411       .  A
C3360      C3361   1.394       .  A
C3360      H3373   1.083       .  S
C3361      C3362   1.411       .  A
C3361      H3374   1.077       .  S
C3362      C3368   1.431       .  A
C3362      C3363   1.421       .  A
C3363      C3365   1.400       .  A
C3363      C3364   1.407       .  A
C3364      H3375   1.079       .  S
C3365      C3366   1.390       .  A
C3365      H3376   1.084       .  S
C3366      C3367   1.400       .  A
C3366      H3377   1.084       .  S
C3367      C3368   1.421       .  A
C3367      C3372   1.404       .  A
C3368      C3369   1.417       .  A
C3369      C3370   1.399       .  A
C3369      H3378   1.077       .  S
C3370      C3371   1.400       .  A
C3370      H3379   1.083       .  S
C3371      C3372   1.405       .  A
C3372      H3380   1.084       .  S
C3381      C3382   1.401       .  A
C3381      C3386   1.404       .  A
C3382      C3383   1.400       .  A
C3382      H3395   1.083       .  S
C3383      C3384   1.417       .  A
C3383      H3396   1.077       .  S
C3384      C3390   1.432       .  A
C3384      C3385   1.421       .  A
C3385      C3387   1.400       .  A
C3385      C3386   1.403       .  A
C3386      H3397   1.084       .  S
C3387      C3388   1.389       .  A
C3387      H3398   1.084       .  S
C3388      C3389   1.399       .  A
C3388      H3399   1.084       .  S
C3389      C3390   1.421       .  A
C3389      C3394   1.405       .  A
C3390      C3391   1.411       .  A
C3391      C3392   1.397       .  A
C3391      H3400   1.077       .  S
C3392      C3393   1.412       .  A
C3392      H3401   1.079       .  S
C3393      C3394   1.410       .  A
C3394      H3402   1.084       .  S
C3403      C3404   1.400       .  A
C3403      C3408   1.403       .  A
C3404      C3405   1.394       .  A
C3404      H3417   1.084       .  S
C3405      C3406   1.414       .  A
C3405      H3418   1.077       .  S
C3406      C3412   1.430       .  A
C3406      C3407   1.422       .  A
C3407      C3409   1.400       .  A
C3407      C3408   1.409       .  A
C3408      H3419   1.084       .  S
C3409      C3410   1.393       .  A
C3409      H3420   1.084       .  S
C3410      C3411   1.401       .  A
C3410      H3421   1.084       .  S
C3411      C3412   1.419       .  A
C3411      C3416   1.407       .  A
C3412      C3413   1.411       .  A
C3413      C3414   1.393       .  A
C3413      H3422   1.077       .  S
C3414      C3415   1.410       .  A
C3414      H3423   1.080       .  S
C3415      C3416   1.411       .  A
C3416      H3424   1.084       .  S
C3425      C3426   1.411       .  A
C3425      C3430   1.415       .  A
C3426      C3427   1.389       .  A
C3426      H3439   1.079       .  S
C3427      C3428   1.407       .  A
C3427      H3440   1.077       .  S
C3428      C3434   1.428       .  A
C3428      C3429   1.419       .  A
C3429      C3431   1.403       .  A
C3429      C3430   1.414       .  A
C3430      H3441   1.084       .  S
C3431      C3432   1.398       .  A
C3431      H3442   1.084       .  S
C3432      C3433   1.402       .  A
C3432      H3443   1.084       .  S
C3433      C3434   1.422       .  A
C3433      C3438   1.414       .  A
C3434      C3435   1.413       .  A
C3435      C3436   1.390       .  A
C3435      H3444   1.077       .  S
C3436      C3437   1.395       .  A
C3436      H3445   1.084       .  S
C3437      C3438   1.404       .  A
C3438      H3446   1.084       .  S
C3447      C3448   1.398       .  A
C3447      C3452   1.396       .  A
C3448      C3449   1.397       .  A
C3448      H3461   1.084       .  S
C3449      C3450   1.415       .  A
C3449      H3462   1.077       .  S
C3450      C3456   1.431       .  A
C3450      C3451   1.425       .  A
C3451      C3453   1.398       .  A
C3451      C3452   1.406       .  A
C3452      H3463   1.085       .  S
C3453      C3454   1.389       .  A
C3453      H3464   1.084       .  S
C3454      C3455   1.401       .  A
C3454      H3465   1.084       .  S
C3455      C3456   1.418       .  A
C3455      C3460   1.404       .  A
C3456      C3457   1.413       .  A
C3457      C3458   1.398       .  A
C3457      H3466   1.077       .  S
C3458      C3459   1.410       .  A
C3458      H3467   1.083       .  S
C3459      C3460   1.414       .  A
C3460      H3468   1.081       .  S
C3469      C3470   1.397       .  A
C3469      C3474   1.399       .  A
C3470      C3471   1.398       .  A
C3470      H3483   1.084       .  S
C3471      C3472   1.416       .  A
C3471      H3484   1.078       .  S
C3472      C3478   1.428       .  A
C3472      C3473   1.421       .  A
C3473      C3475   1.400       .  A
C3473      C3474   1.404       .  A
C3474      H3485   1.085       .  S
C3475      C3476   1.392       .  A
C3475      H3486   1.084       .  S
C3476      C3477   1.400       .  A
C3476      H3487   1.084       .  S
C3477      C3478   1.419       .  A
C3477      C3482   1.406       .  A
C3478      C3479   1.408       .  A
C3479      C3480   1.395       .  A
C3479      H3488   1.079       .  S
C3480      C3481   1.413       .  A
C3480      H3489   1.077       .  S
C3481      C3482   1.413       .  A
C3482      H3490   1.084       .  S
C3491      C3492   1.411       .  A
C3491      C3496   1.415       .  A
C3492      C3493   1.394       .  A
C3492      H3505   1.077       .  S
C3493      C3494   1.410       .  A
C3493      H3506   1.078       .  S
C3494      C3500   1.428       .  A
C3494      C3495   1.417       .  A
C3495      C3497   1.402       .  A
C3495      C3496   1.408       .  A
C3496      H3507   1.084       .  S
C3497      C3498   1.395       .  A
C3497      H3508   1.084       .  S
C3498      C3499   1.401       .  A
C3498      H3509   1.084       .  S
C3499      C3500   1.422       .  A
C3499      C3504   1.412       .  A
C3500      C3501   1.411       .  A
C3501      C3502   1.392       .  A
C3501      H3510   1.078       .  S
C3502      C3503   1.403       .  A
C3502      H3511   1.083       .  S
C3503      C3504   1.405       .  A
C3504      H3512   1.084       .  S
C3513      C3514   1.410       .  A
C3513      C3518   1.410       .  A
C3514      C3515   1.396       .  A
C3514      H3527   1.083       .  S
C3515      C3516   1.411       .  A
C3515      H3528   1.079       .  S
C3516      C3522   1.428       .  A
C3516      C3517   1.419       .  A
C3517      C3519   1.400       .  A
C3517      C3518   1.403       .  A
C3518      H3529   1.082       .  S
C3519      C3520   1.390       .  A
C3519      H3530   1.084       .  S
C3520      C3521   1.399       .  A
C3520      H3531   1.084       .  S
C3521      C3522   1.422       .  A
C3521      C3526   1.403       .  A
C3522      C3523   1.416       .  A
C3523      C3524   1.399       .  A
C3523      H3532   1.079       .  S
C3524      C3525   1.398       .  A
C3524      H3533   1.084       .  S
C3525      C3526   1.397       .  A
C3526      H3534   1.085       .  S
C3535      C3536   1.410       .  A
C3535      C3540   1.413       .  A
C3536      C3537   1.389       .  A
C3536      H3549   1.081       .  S
C3537      C3538   1.409       .  A
C3537      H3550   1.077       .  S
C3538      C3544   1.428       .  A
C3538      C3539   1.420       .  A
C3539      C3541   1.401       .  A
C3539      C3540   1.411       .  A
C3540      H3551   1.084       .  S
C3541      C3542   1.396       .  A
C3541      H3552   1.084       .  S
C3542      C3543   1.402       .  A
C3542      H3553   1.084       .  S
C3543      C3544   1.422       .  A
C3543      C3548   1.412       .  A
C3544      C3545   1.412       .  A
C3545      C3546   1.390       .  A
C3545      H3554   1.077       .  S
C3546      C3547   1.401       .  A
C3546      H3555   1.083       .  S
C3547      C3548   1.406       .  A
C3548      H3556   1.084       .  S
C3557      C3558   1.403       .  A
C3557      C3562   1.402       .  A
C3558      C3559   1.392       .  A
C3558      H3571   1.083       .  S
C3559      C3560   1.411       .  A
C3559      H3572   1.078       .  S
C3560      C3566   1.426       .  A
C3560      C3561   1.422       .  A
C3561      C3563   1.400       .  A
C3561      C3562   1.406       .  A
C3562      H3573   1.084       .  S
C3563      C3564   1.391       .  A
C3563      H3574   1.084       .  S
C3564      C3565   1.400       .  A
C3564      H3575   1.084       .  S
C3565      C3566   1.417       .  A
C3565      C3570   1.402       .  A
C3566      C3567   1.412       .  A
C3567      C3568   1.395       .  A
C3567      H3576   1.078       .  S
C3568      C3569   1.409       .  A
C3568      H3577   1.080       .  S
C3569      C3570   1.412       .  A
C3570      H3578   1.084       .  S
C3579      C3580   1.415       .  A
C3579      C3584   1.413       .  A
C3580      C3581   1.388       .  A
C3580      H3593   1.078       .  S
C3581      C3582   1.406       .  A
C3581      H3594   1.077       .  S
C3582      C3588   1.427       .  A
C3582      C3583   1.420       .  A
C3583      C3585   1.401       .  A
C3583      C3584   1.412       .  A
C3584      H3595   1.084       .  S
C3585      C3586   1.396       .  A
C3585      H3596   1.084       .  S
C3586      C3587   1.402       .  A
C3586      H3597   1.084       .  S
C3587      C3588   1.421       .  A
C3587      C3592   1.411       .  A
C3588      C3589   1.415       .  A
C3589      C3590   1.393       .  A
C3589      H3598   1.077       .  S
C3590      C3591   1.396       .  A
C3590      H3599   1.084       .  S
C3591      C3592   1.403       .  A
C3592      H3600   1.084       .  S
C3601      C3602   1.403       .  A
C3601      C3606   1.403       .  A
C3602      C3603   1.399       .  A
C3602      H3615   1.083       .  S
C3603      C3604   1.415       .  A
C3603      H3616   1.077       .  S
C3604      C3610   1.434       .  A
C3604      C3605   1.423       .  A
C3605      C3607   1.399       .  A
C3605      C3606   1.408       .  A
C3606      H3617   1.084       .  S
C3607      C3608   1.390       .  A
C3607      H3618   1.084       .  S
C3608      C3609   1.400       .  A
C3608      H3619   1.084       .  S
C3609      C3610   1.420       .  A
C3609      C3614   1.408       .  A
C3610      C3611   1.413       .  A
C3611      C3612   1.397       .  A
C3611      H3620   1.077       .  S
C3612      C3613   1.410       .  A
C3612      H3621   1.083       .  S
C3613      C3614   1.412       .  A
C3614      H3622   1.080       .  S
C3623      C3624   1.402       .  A
C3623      C3628   1.405       .  A
C3624      C3625   1.397       .  A
C3624      H3637   1.083       .  S
C3625      C3626   1.415       .  A
C3625      H3638   1.077       .  S
C3626      C3632   1.434       .  A
C3626      C3627   1.422       .  A
C3627      C3629   1.401       .  A
C3627      C3628   1.412       .  A
C3628      H3639   1.084       .  S
C3629      C3630   1.394       .  A
C3629      H3640   1.084       .  S
C3630      C3631   1.401       .  A
C3630      H3641   1.084       .  S
C3631      C3632   1.420       .  A
C3631      C3636   1.412       .  A
C3632      C3633   1.409       .  A
C3633      C3634   1.395       .  A
C3633      H3642   1.077       .  S
C3634      C3635   1.415       .  A
C3634      H3643   1.077       .  S
C3635      C3636   1.415       .  A
C3636      H3644   1.084       .  S
C3645      C3646   1.413       .  A
C3645      C3650   1.410       .  A
C3646      C3647   1.390       .  A
C3646      H3659   1.083       .  S
C3647      C3648   1.406       .  A
C3647      H3660   1.078       .  S
C3648      C3654   1.430       .  A
C3648      C3649   1.423       .  A
C3649      C3651   1.401       .  A
C3649      C3650   1.414       .  A
C3650      H3661   1.080       .  S
C3651      C3652   1.394       .  A
C3651      H3662   1.084       .  S
C3652      C3653   1.401       .  A
C3652      H3663   1.084       .  S
C3653      C3654   1.419       .  A
C3653      C3658   1.406       .  A
C3654      C3655   1.418       .  A
C3655      C3656   1.399       .  A
C3655      H3664   1.078       .  S
C3656      C3657   1.397       .  A
C3656      H3665   1.083       .  S
C3657      C3658   1.403       .  A
C3658      H3666   1.085       .  S
C3667      C3668   1.412       .  A
C3667      C3672   1.415       .  A
C3668      C3669   1.393       .  A
C3668      H3681   1.078       .  S
C3669      C3670   1.410       .  A
C3669      H3682   1.077       .  S
C3670      C3676   1.432       .  A
C3670      C3671   1.419       .  A
C3671      C3673   1.402       .  A
C3671      C3672   1.412       .  A
C3672      H3683   1.084       .  S
C3673      C3674   1.396       .  A
C3673      H3684   1.084       .  S
C3674      C3675   1.401       .  A
C3674      H3685   1.084       .  S
C3675      C3676   1.424       .  A
C3675      C3680   1.415       .  A
C3676      C3677   1.413       .  A
C3677      C3678   1.392       .  A
C3677      H3686   1.076       .  S
C3678      C3679   1.399       .  A
C3678      H3687   1.084       .  S
C3679      C3680   1.402       .  A
C3680      H3688   1.084       .  S
C3689      C3690   1.414       .  A
C3689      C3694   1.412       .  A
C3690      C3691   1.405       .  A
C3690      H3703   1.083       .  S
C3691      C3692   1.414       .  A
C3691      H3704   1.078       .  S
C3692      C3698   1.437       .  A
C3692      C3693   1.420       .  A
C3693      C3695   1.399       .  A
C3693      C3694   1.404       .  A
C3694      H3705   1.077       .  S
C3695      C3696   1.386       .  A
C3695      H3706   1.084       .  S
C3696      C3697   1.398       .  A
C3696      H3707   1.084       .  S
C3697      C3698   1.422       .  A
C3697      C3702   1.402       .  A
C3698      C3699   1.419       .  A
C3699      C3700   1.408       .  A
C3699      H3708   1.078       .  S
C3700      C3701   1.402       .  A
C3700      H3709   1.083       .  S
C3701      C3702   1.401       .  A
C3702      H3710   1.085       .  S
C3711      C3712   1.410       .  A
C3711      C3716   1.414       .  A
C3712      C3713   1.395       .  A
C3712      H3725   1.083       .  S
C3713      C3714   1.412       .  A
C3713      H3726   1.077       .  S
C3714      C3720   1.431       .  A
C3714      C3715   1.419       .  A
C3715      C3717   1.402       .  A
C3715      C3716   1.409       .  A
C3716      H3727   1.078       .  S
C3717      C3718   1.393       .  A
C3717      H3728   1.084       .  S
C3718      C3719   1.400       .  A
C3718      H3729   1.084       .  S
C3719      C3720   1.423       .  A
C3719      C3724   1.411       .  A
C3720      C3721   1.412       .  A
C3721      C3722   1.393       .  A
C3721      H3730   1.077       .  S
C3722      C3723   1.403       .  A
C3722      H3731   1.083       .  S
C3723      C3724   1.404       .  A
C3724      H3732   1.084       .  S
C3733      C3734   1.397       .  A
C3733      C3738   1.396       .  A
C3734      C3735   1.400       .  A
C3734      H3747   1.083       .  S
C3735      C3736   1.416       .  A
C3735      H3748   1.078       .  S
C3736      C3742   1.431       .  A
C3736      C3737   1.424       .  A
C3737      C3739   1.398       .  A
C3737      C3738   1.404       .  A
C3738      H3749   1.085       .  S
C3739      C3740   1.388       .  A
C3739      H3750   1.084       .  S
C3740      C3741   1.400       .  A
C3740      H3751   1.084       .  S
C3741      C3742   1.418       .  A
C3741      C3746   1.401       .  A
C3742      C3743   1.414       .  A
C3743      C3744   1.401       .  A
C3743      H3752   1.078       .  S
C3744      C3745   1.409       .  A
C3744      H3753   1.083       .  S
C3745      C3746   1.413       .  A
C3746      H3754   1.081       .  S
C3755      C3756   1.399       .  A
C3755      C3760   1.399       .  A
C3756      C3757   1.397       .  A
C3756      H3769   1.083       .  S
C3757      C3758   1.414       .  A
C3757      H3770   1.079       .  S
C3758      C3764   1.426       .  A
C3758      C3759   1.422       .  A
C3759      C3761   1.399       .  A
C3759      C3760   1.402       .  A
C3760      H3771   1.085       .  S
C3761      C3762   1.389       .  A
C3761      H3772   1.084       .  S
C3762      C3763   1.399       .  A
C3762      H3773   1.084       .  S
C3763      C3764   1.417       .  A
C3763      C3768   1.398       .  A
C3764      C3765   1.412       .  A
C3765      C3766   1.398       .  A
C3765      H3774   1.079       .  S
C3766      C3767   1.409       .  A
C3766      H3775   1.079       .  S
C3767      C3768   1.411       .  A
C3768      H3776   1.083       .  S
C3777      C3778   1.401       .  A
C3777      C3782   1.407       .  A
C3778      C3779   1.397       .  A
C3778      H3791   1.083       .  S
C3779      C3780   1.416       .  A
C3779      H3792   1.077       .  S
C3780      C3786   1.433       .  A
C3780      C3781   1.421       .  A
C3781      C3783   1.402       .  A
C3781      C3782   1.411       .  A
C3782      H3793   1.084       .  S
C3783      C3784   1.395       .  A
C3783      H3794   1.084       .  S
C3784      C3785   1.401       .  A
C3784      H3795   1.084       .  S
C3785      C3786   1.421       .  A
C3785      C3790   1.414       .  A
C3786      C3787   1.408       .  A
C3787      C3788   1.392       .  A
C3787      H3796   1.077       .  S
C3788      C3789   1.415       .  A
C3788      H3797   1.079       .  S
C3789      C3790   1.413       .  A
C3790      H3798   1.084       .  S
C3799      C3800   1.414       .  A
C3799      C3804   1.409       .  A
C3800      C3801   1.402       .  A
C3800      H3813   1.078       .  S
C3801      C3802   1.412       .  A
C3801      H3814   1.079       .  S
C3802      C3808   1.435       .  A
C3802      C3803   1.421       .  A
C3803      C3805   1.397       .  A
C3803      C3804   1.403       .  A
C3804      H3815   1.084       .  S
C3805      C3806   1.387       .  A
C3805      H3816   1.084       .  S
C3806      C3807   1.399       .  A
C3806      H3817   1.084       .  S
C3807      C3808   1.420       .  A
C3807      C3812   1.401       .  A
C3808      C3809   1.419       .  A
C3809      C3810   1.407       .  A
C3809      H3818   1.078       .  S
C3810      C3811   1.404       .  A
C3810      H3819   1.083       .  S
C3811      C3812   1.404       .  A
C3812      H3820   1.084       .  S
C3821      C3822   1.399       .  A
C3821      C3826   1.404       .  A
C3822      C3823   1.399       .  A
C3822      H3835   1.083       .  S
C3823      C3824   1.416       .  A
C3823      H3836   1.078       .  S
C3824      C3830   1.429       .  A
C3824      C3825   1.420       .  A
C3825      C3827   1.401       .  A
C3825      C3826   1.407       .  A
C3826      H3837   1.085       .  S
C3827      C3828   1.393       .  A
C3827      H3838   1.084       .  S
C3828      C3829   1.400       .  A
C3828      H3839   1.084       .  S
C3829      C3830   1.419       .  A
C3829      C3834   1.408       .  A
C3830      C3831   1.408       .  A
C3831      C3832   1.395       .  A
C3831      H3840   1.079       .  S
C3832      C3833   1.413       .  A
C3832      H3841   1.078       .  S
C3833      C3834   1.412       .  A
C3834      H3842   1.084       .  S
C3843      C3844   1.397       .  A
C3843      C3848   1.403       .  A
C3844      C3845   1.397       .  A
C3844      H3857   1.083       .  S
C3845      C3846   1.416       .  A
C3845      H3858   1.078       .  S
C3846      C3852   1.428       .  A
C3846      C3847   1.420       .  A
C3847      C3849   1.400       .  A
C3847      C3848   1.405       .  A
C3848      H3859   1.085       .  S
C3849      C3850   1.392       .  A
C3849      H3860   1.084       .  S
C3850      C3851   1.401       .  A
C3850      H3861   1.084       .  S
C3851      C3852   1.421       .  A
C3851      C3856   1.408       .  A
C3852      C3853   1.409       .  A
C3853      C3854   1.392       .  A
C3853      H3862   1.078       .  S
C3854      C3855   1.409       .  A
C3854      H3863   1.084       .  S
C3855      C3856   1.411       .  A
C3856      H3864   1.081       .  S
C3865      C3866   1.402       .  A
C3865      C3870   1.404       .  A
C3866      C3867   1.405       .  A
C3866      H3879   1.083       .  S
C3867      C3868   1.419       .  A
C3867      H3880   1.078       .  S
C3868      C3874   1.434       .  A
C3868      C3869   1.420       .  A
C3869      C3871   1.399       .  A
C3869      C3870   1.400       .  A
C3870      H3881   1.084       .  S
C3871      C3872   1.386       .  A
C3871      H3882   1.084       .  S
C3872      C3873   1.398       .  A
C3872      H3883   1.084       .  S
C3873      C3874   1.421       .  A
C3873      C3878   1.402       .  A
C3874      C3875   1.413       .  A
C3875      C3876   1.401       .  A
C3875      H3884   1.078       .  S
C3876      C3877   1.412       .  A
C3876      H3885   1.080       .  S
C3877      C3878   1.408       .  A
C3878      H3886   1.084       .  S
C3887      C3888   1.411       .  A
C3887      C3892   1.415       .  A
C3888      C3889   1.396       .  A
C3888      H3901   1.077       .  S
C3889      C3890   1.411       .  A
C3889      H3902   1.078       .  S
C3890      C3896   1.429       .  A
C3890      C3891   1.417       .  A
C3891      C3893   1.402       .  A
C3891      C3892   1.408       .  A
C3892      H3903   1.084       .  S
C3893      C3894   1.394       .  A
C3893      H3904   1.084       .  S
C3894      C3895   1.401       .  A
C3894      H3905   1.084       .  S
C3895      C3896   1.422       .  A
C3895      C3900   1.412       .  A
C3896      C3897   1.411       .  A
C3897      C3898   1.394       .  A
C3897      H3906   1.078       .  S
C3898      C3899   1.404       .  A
C3898      H3907   1.083       .  S
C3899      C3900   1.405       .  A
C3900      H3908   1.084       .  S
C3909      C3910   1.402       .  A
C3909      C3914   1.403       .  A
C3910      C3911   1.395       .  A
C3910      H3923   1.084       .  S
C3911      C3912   1.412       .  A
C3911      H3924   1.077       .  S
C3912      C3918   1.434       .  A
C3912      C3913   1.425       .  A
C3913      C3915   1.400       .  A
C3913      C3914   1.413       .  A
C3914      H3925   1.084       .  S
C3915      C3916   1.393       .  A
C3915      H3926   1.084       .  S
C3916      C3917   1.402       .  A
C3916      H3927   1.084       .  S
C3917      C3918   1.418       .  A
C3917      C3922   1.409       .  A
C3918      C3919   1.414       .  A
C3919      C3920   1.398       .  A
C3919      H3928   1.077       .  S
C3920      C3921   1.411       .  A
C3920      H3929   1.083       .  S
C3921      C3922   1.417       .  A
C3922      H3930   1.077       .  S
C3931      C3932   1.403       .  A
C3931      C3936   1.401       .  A
C3932      C3933   1.391       .  A
C3932      H3945   1.084       .  S
C3933      C3934   1.410       .  A
C3933      H3946   1.078       .  S
C3934      C3940   1.428       .  A
C3934      C3935   1.424       .  A
C3935      C3937   1.399       .  A
C3935      C3936   1.409       .  A
C3936      H3947   1.084       .  S
C3937      C3938   1.392       .  A
C3937      H3948   1.084       .  S
C3938      C3939   1.402       .  A
C3938      H3949   1.085       .  S
C3939      C3940   1.414       .  A
C3939      C3944   1.403       .  A
C3940      C3941   1.409       .  A
C3941      C3942   1.395       .  A
C3941      H3950   1.079       .  S
C3942      C3943   1.417       .  A
C3942      H3951   1.079       .  S
C3943      C3944   1.414       .  A
C3944      H3952   1.094       .  S
C3953      C3954   1.412       .  A
C3953      C3958   1.421       .  A
C3954      C3955   1.393       .  A
C3954      H3967   1.087       .  S
C3955      C3956   1.408       .  A
C3955      H3968   1.078       .  S
C3956      C3962   1.428       .  A
C3956      C3957   1.415       .  A
C3957      C3959   1.402       .  A
C3957      C3958   1.407       .  A
C3958      H3969   1.077       .  S
C3959      C3960   1.393       .  A
C3959      H3970   1.084       .  S
C3960      C3961   1.400       .  A
C3960      H3971   1.084       .  S
C3961      C3962   1.423       .  A
C3961      C3966   1.410       .  A
C3962      C3963   1.410       .  A
C3963      C3964   1.392       .  A
C3963      H3972   1.078       .  S
C3964      C3965   1.404       .  A
C3964      H3973   1.083       .  S
C3965      C3966   1.403       .  A
C3966      H3974   1.084       .  S
C3975      C3976   1.402       .  A
C3975      C3980   1.405       .  A
C3976      C3977   1.396       .  A
C3976      H3989   1.083       .  S
C3977      C3978   1.414       .  A
C3977      H3990   1.077       .  S
C3978      C3984   1.431       .  A
C3978      C3979   1.421       .  A
C3979      C3981   1.401       .  A
C3979      C3980   1.408       .  A
C3980      H3991   1.084       .  S
C3981      C3982   1.393       .  A
C3981      H3992   1.084       .  S
C3982      C3983   1.401       .  A
C3982      H3993   1.084       .  S
C3983      C3984   1.421       .  A
C3983      C3988   1.410       .  A
C3984      C3985   1.410       .  A
C3985      C3986   1.393       .  A
C3985      H3994   1.077       .  S
C3986      C3987   1.410       .  A
C3986      H3995   1.083       .  S
C3987      C3988   1.412       .  A
C3988      H3996   1.080       .  S
C3997      C3998   1.409       .  A
C3997      C4002   1.416       .  A
C3998      C3999   1.396       .  A
C3998      H4011   1.079       .  S
C3999      C4000   1.412       .  A
C3999      H4012   1.078       .  S
C4000      C4006   1.428       .  A
C4000      C4001   1.416       .  A
C4001      C4003   1.403       .  A
C4001      C4002   1.408       .  A
C4002      H4013   1.084       .  S
C4003      C4004   1.396       .  A
C4003      H4014   1.084       .  S
C4004      C4005   1.402       .  A
C4004      H4015   1.084       .  S
C4005      C4006   1.422       .  A
C4005      C4010   1.414       .  A
C4006      C4007   1.409       .  A
C4007      C4008   1.392       .  A
C4007      H4016   1.078       .  S
C4008      C4009   1.404       .  A
C4008      H4017   1.083       .  S
C4009      C4010   1.407       .  A
C4010      H4018   1.084       .  S
C4019      C4020   1.401       .  A
C4019      C4024   1.403       .  A
C4020      C4021   1.407       .  A
C4020      H4033   1.083       .  S
C4021      C4022   1.419       .  A
C4021      H4034   1.078       .  S
C4022      C4028   1.436       .  A
C4022      C4023   1.421       .  A
C4023      C4025   1.399       .  A
C4023      C4024   1.404       .  A
C4024      H4035   1.085       .  S
C4025      C4026   1.388       .  A
C4025      H4036   1.084       .  S
C4026      C4027   1.399       .  A
C4026      H4037   1.084       .  S
C4027      C4028   1.422       .  A
C4027      C4032   1.407       .  A
C4028      C4029   1.412       .  A
C4029      C4030   1.402       .  A
C4029      H4038   1.078       .  S
C4030      C4031   1.412       .  A
C4030      H4039   1.083       .  S
C4031      C4032   1.411       .  A
C4032      H4040   1.080       .  S
C4041      C4042   1.400       .  A
C4041      C4046   1.401       .  A
C4042      C4043   1.403       .  A
C4042      H4055   1.083       .  S
C4043      C4044   1.418       .  A
C4043      H4056   1.078       .  S
C4044      C4050   1.431       .  A
C4044      C4045   1.421       .  A
C4045      C4047   1.399       .  A
C4045      C4046   1.399       .  A
C4046      H4057   1.085       .  S
C4047      C4048   1.386       .  A
C4047      H4058   1.084       .  S
C4048      C4049   1.398       .  A
C4048      H4059   1.084       .  S
C4049      C4050   1.420       .  A
C4049      C4054   1.401       .  A
C4050      C4051   1.412       .  A
C4051      C4052   1.400       .  A
C4051      H4060   1.078       .  S
C4052      C4053   1.412       .  A
C4052      H4061   1.079       .  S
C4053      C4054   1.409       .  A
C4054      H4062   1.085       .  S
C4063      C4064   1.408       .  A
C4063      C4068   1.412       .  A
C4064      C4065   1.391       .  A
C4064      H4077   1.081       .  S
C4065      C4066   1.412       .  A
C4065      H4078   1.076       .  S
C4066      C4072   1.427       .  A
C4066      C4067   1.419       .  A
C4067      C4069   1.401       .  A
C4067      C4068   1.406       .  A
C4068      H4079   1.084       .  S
C4069      C4070   1.393       .  A
C4069      H4080   1.084       .  S
C4070      C4071   1.400       .  A
C4070      H4081   1.084       .  S
C4071      C4072   1.423       .  A
C4071      C4076   1.411       .  A
C4072      C4073   1.411       .  A
C4073      C4074   1.389       .  A
C4073      H4082   1.076       .  S
C4074      C4075   1.402       .  A
C4074      H4083   1.083       .  S
C4075      C4076   1.403       .  A
C4076      H4084   1.084       .  S
C4085      C4086   1.399       .  A
C4085      C4090   1.399       .  A
C4086      C4087   1.399       .  A
C4086      H4099   1.083       .  S
C4087      C4088   1.416       .  A
C4087      H4100   1.078       .  S
C4088      C4094   1.432       .  A
C4088      C4089   1.424       .  A
C4089      C4091   1.398       .  A
C4089      C4090   1.404       .  A
C4090      H4101   1.085       .  S
C4091      C4092   1.388       .  A
C4091      H4102   1.084       .  S
C4092      C4093   1.400       .  A
C4092      H4103   1.084       .  S
C4093      C4094   1.418       .  A
C4093      C4098   1.401       .  A
C4094      C4095   1.415       .  A
C4095      C4096   1.401       .  A
C4095      H4104   1.078       .  S
C4096      C4097   1.407       .  A
C4096      H4105   1.083       .  S
C4097      C4098   1.413       .  A
C4098      H4106   1.081       .  S
C4107      C4108   1.403       .  A
C4107      C4112   1.401       .  A
C4108      C4109   1.398       .  A
C4108      H4121   1.083       .  S
C4109      C4110   1.414       .  A
C4109      H4122   1.077       .  S
C4110      C4116   1.432       .  A
C4110      C4111   1.423       .  A
C4111      C4113   1.398       .  A
C4111      C4112   1.404       .  A
C4112      H4123   1.084       .  S
C4113      C4114   1.387       .  A
C4113      H4124   1.084       .  S
C4114      C4115   1.399       .  A
C4114      H4125   1.084       .  S
C4115      C4116   1.419       .  A
C4115      C4120   1.400       .  A
C4116      C4117   1.415       .  A
C4117      C4118   1.400       .  A
C4117      H4126   1.077       .  S
C4118      C4119   1.409       .  A
C4118      H4127   1.080       .  S
C4119      C4120   1.409       .  A
C4120      H4128   1.084       .  S
C4129      C4130   1.411       .  A
C4129      C4134   1.411       .  A
C4130      C4131   1.399       .  A
C4130      H4143   1.083       .  S
C4131      C4132   1.413       .  A
C4131      H4144   1.078       .  S
C4132      C4138   1.433       .  A
C4132      C4133   1.421       .  A
C4133      C4135   1.400       .  A
C4133      C4134   1.405       .  A
C4134      H4145   1.080       .  S
C4135      C4136   1.388       .  A
C4135      H4146   1.084       .  S
C4136      C4137   1.399       .  A
C4136      H4147   1.084       .  S
C4137      C4138   1.423       .  A
C4137      C4142   1.404       .  A
C4138      C4139   1.418       .  A
C4139      C4140   1.401       .  A
C4139      H4148   1.078       .  S
C4140      C4141   1.398       .  A
C4140      H4149   1.083       .  S
C4141      C4142   1.398       .  A
C4142      H4150   1.085       .  S
C4151      C4152   1.401       .  A
C4151      C4156   1.409       .  A
C4152      C4153   1.391       .  A
C4152      H4165   1.083       .  S
C4153      C4154   1.412       .  A
C4153      H4166   1.078       .  S
C4154      C4160   1.427       .  A
C4154      C4155   1.419       .  A
C4155      C4157   1.403       .  A
C4155      C4156   1.413       .  A
C4156      H4167   1.084       .  S
C4157      C4158   1.398       .  A
C4157      H4168   1.084       .  S
C4158      C4159   1.403       .  A
C4158      H4169   1.084       .  S
C4159      C4160   1.418       .  A
C4159      C4164   1.414       .  A
C4160      C4161   1.404       .  A
C4161      C4162   1.387       .  A
C4161      H4170   1.078       .  S
C4162      C4163   1.415       .  A
C4162      H4171   1.074       .  S
C4163      C4164   1.418       .  A
C4164      H4172   1.084       .  S
C4173      C4174   1.410       .  A
C4173      C4178   1.409       .  A
C4174      C4175   1.394       .  A
C4174      H4187   1.081       .  S
C4175      C4176   1.412       .  A
C4175      H4188   1.077       .  S
C4176      C4182   1.428       .  A
C4176      C4177   1.420       .  A
C4177      C4179   1.400       .  A
C4177      C4178   1.405       .  A
C4178      H4189   1.084       .  S
C4179      C4180   1.391       .  A
C4179      H4190   1.084       .  S
C4180      C4181   1.400       .  A
C4180      H4191   1.084       .  S
C4181      C4182   1.423       .  A
C4181      C4186   1.406       .  A
C4182      C4183   1.415       .  A
C4183      C4184   1.395       .  A
C4183      H4192   1.077       .  S
C4184      C4185   1.398       .  A
C4184      H4193   1.084       .  S
C4185      C4186   1.399       .  A
C4186      H4194   1.085       .  S
C4195      C4196   1.412       .  A
C4195      C4200   1.408       .  A
C4196      C4197   1.396       .  A
C4196      H4209   1.081       .  S
C4197      C4198   1.411       .  A
C4197      H4210   1.077       .  S
C4198      C4204   1.430       .  A
C4198      C4199   1.421       .  A
C4199      C4201   1.399       .  A
C4199      C4200   1.403       .  A
C4200      H4211   1.084       .  S
C4201      C4202   1.388       .  A
C4201      H4212   1.084       .  S
C4202      C4203   1.399       .  A
C4202      H4213   1.084       .  S
C4203      C4204   1.421       .  A
C4203      C4208   1.401       .  A
C4204      C4205   1.419       .  A
C4205      C4206   1.401       .  A
C4205      H4214   1.078       .  S
C4206      C4207   1.396       .  A
C4206      H4215   1.083       .  S
C4207      C4208   1.398       .  A
C4208      H4216   1.085       .  S
C4217      C4218   1.398       .  A
C4217      C4222   1.402       .  A
C4218      C4219   1.396       .  A
C4218      H4231   1.083       .  S
C4219      C4220   1.416       .  A
C4219      H4232   1.077       .  S
C4220      C4226   1.428       .  A
C4220      C4221   1.421       .  A
C4221      C4223   1.400       .  A
C4221      C4222   1.404       .  A
C4222      H4233   1.085       .  S
C4223      C4224   1.391       .  A
C4223      H4234   1.084       .  S
C4224      C4225   1.400       .  A
C4224      H4235   1.084       .  S
C4225      C4226   1.422       .  A
C4225      C4230   1.407       .  A
C4226      C4227   1.409       .  A
C4227      C4228   1.391       .  A
C4227      H4236   1.077       .  S
C4228      C4229   1.409       .  A
C4228      H4237   1.083       .  S
C4229      C4230   1.409       .  A
C4230      H4238   1.081       .  S
C4239      C4240   1.415       .  A
C4239      C4244   1.412       .  A
C4240      C4241   1.392       .  A
C4240      H4253   1.083       .  S
C4241      C4242   1.408       .  A
C4241      H4254   1.078       .  S
C4242      C4248   1.429       .  A
C4242      C4243   1.420       .  A
C4243      C4245   1.401       .  A
C4243      C4244   1.409       .  A
C4244      H4255   1.076       .  S
C4245      C4246   1.392       .  A
C4245      H4256   1.084       .  S
C4246      C4247   1.400       .  A
C4246      H4257   1.084       .  S
C4247      C4248   1.420       .  A
C4247      C4252   1.406       .  A
C4248      C4249   1.415       .  A
C4249      C4250   1.397       .  A
C4249      H4258   1.078       .  S
C4250      C4251   1.400       .  A
C4250      H4259   1.083       .  S
C4251      C4252   1.403       .  A
C4252      H4260   1.084       .  S
C4261      C4262   1.403       .  A
C4261      C4266   1.401       .  A
C4262      C4263   1.407       .  A
C4262      H4275   1.083       .  S
C4263      C4264   1.419       .  A
C4263      H4276   1.078       .  S
C4264      C4270   1.437       .  A
C4264      C4265   1.421       .  A
C4265      C4267   1.398       .  A
C4265      C4266   1.400       .  A
C4266      H4277   1.085       .  S
C4267      C4268   1.385       .  A
C4267      H4278   1.084       .  S
C4268      C4269   1.398       .  A
C4268      H4279   1.084       .  S
C4269      C4270   1.421       .  A
C4269      C4274   1.404       .  A
C4270      C4271   1.413       .  A
C4271      C4272   1.403       .  A
C4271      H4280   1.078       .  S
C4272      C4273   1.414       .  A
C4272      H4281   1.083       .  S
C4273      C4274   1.410       .  A
C4274      H4282   1.077       .  S
C4283      C4284   1.400       .  A
C4283      C4288   1.399       .  A
C4284      C4285   1.405       .  A
C4284      H4297   1.083       .  S
C4285      C4286   1.419       .  A
C4285      H4298   1.078       .  S
C4286      C4292   1.434       .  A
C4286      C4287   1.422       .  A
C4287      C4289   1.398       .  A
C4287      C4288   1.401       .  A
C4288      H4299   1.085       .  S
C4289      C4290   1.387       .  A
C4289      H4300   1.084       .  S
C4290      C4291   1.399       .  A
C4290      H4301   1.084       .  S
C4291      C4292   1.421       .  A
C4291      C4296   1.405       .  A
C4292      C4293   1.412       .  A
C4293      C4294   1.400       .  A
C4293      H4302   1.078       .  S
C4294      C4295   1.413       .  A
C4294      H4303   1.083       .  S
C4295      C4296   1.410       .  A
C4296      H4304   1.079       .  S
C4305      C4306   1.411       .  A
C4305      C4310   1.415       .  A
C4306      C4307   1.394       .  A
C4306      H4319   1.083       .  S
C4307      C4308   1.412       .  A
C4307      H4320   1.077       .  S
C4308      C4314   1.431       .  A
C4308      C4309   1.419       .  A
C4309      C4311   1.402       .  A
C4309      C4310   1.409       .  A
C4310      H4321   1.078       .  S
C4311      C4312   1.393       .  A
C4311      H4322   1.084       .  S
C4312      C4313   1.400       .  A
C4312      H4323   1.084       .  S
C4313      C4314   1.424       .  A
C4313      C4318   1.412       .  A
C4314      C4315   1.412       .  A
C4315      C4316   1.393       .  A
C4315      H4324   1.077       .  S
C4316      C4317   1.402       .  A
C4316      H4325   1.083       .  S
C4317      C4318   1.404       .  A
C4318      H4326   1.084       .  S
C4327      C4328   1.395       .  A
C4327      C4332   1.400       .  A
C4328      C4329   1.396       .  A
C4328      H4341   1.084       .  S
C4329      C4330   1.417       .  A
C4329      H4342   1.077       .  S
C4330      C4336   1.428       .  A
C4330      C4331   1.422       .  A
C4331      C4333   1.400       .  A
C4331      C4332   1.405       .  A
C4332      H4343   1.085       .  S
C4333      C4334   1.391       .  A
C4333      H4344   1.084       .  S
C4334      C4335   1.400       .  A
C4334      H4345   1.084       .  S
C4335      C4336   1.420       .  A
C4335      C4340   1.405       .  A
C4336      C4337   1.410       .  A
C4337      C4338   1.393       .  A
C4337      H4346   1.077       .  S
C4338      C4339   1.411       .  A
C4338      H4347   1.080       .  S
C4339      C4340   1.410       .  A
C4340      H4348   1.084       .  S
C4349      C4350   1.410       .  A
C4349      C4354   1.412       .  A
C4350      C4351   1.398       .  A
C4350      H4363   1.080       .  S
C4351      C4352   1.414       .  A
C4351      H4364   1.077       .  S
C4352      C4358   1.432       .  A
C4352      C4353   1.419       .  A
C4353      C4355   1.400       .  A
C4353      C4354   1.405       .  A
C4354      H4365   1.085       .  S
C4355      C4356   1.391       .  A
C4355      H4366   1.084       .  S
C4356      C4357   1.399       .  A
C4356      H4367   1.084       .  S
C4357      C4358   1.424       .  A
C4357      C4362   1.409       .  A
C4358      C4359   1.414       .  A
C4359      C4360   1.396       .  A
C4359      H4368   1.077       .  S
C4360      C4361   1.400       .  A
C4360      H4369   1.084       .  S
C4361      C4362   1.400       .  A
C4362      H4370   1.085       .  S
C4371      C4372   1.410       .  A
C4371      C4376   1.413       .  A
C4372      C4373   1.397       .  A
C4372      H4385   1.083       .  S
C4373      C4374   1.411       .  A
C4373      H4386   1.078       .  S
C4374      C4380   1.431       .  A
C4374      C4375   1.419       .  A
C4375      C4377   1.400       .  A
C4375      C4376   1.407       .  A
C4376      H4387   1.081       .  S
C4377      C4378   1.390       .  A
C4377      H4388   1.084       .  S
C4378      C4379   1.399       .  A
C4378      H4389   1.084       .  S
C4379      C4380   1.422       .  A
C4379      C4384   1.406       .  A
C4380      C4381   1.414       .  A
C4381      C4382   1.398       .  A
C4381      H4390   1.078       .  S
C4382      C4383   1.402       .  A
C4382      H4391   1.083       .  S
C4383      C4384   1.402       .  A
C4384      H4392   1.084       .  S
C4393      C4394   1.404       .  A
C4393      C4398   1.402       .  A
C4394      C4395   1.403       .  A
C4394      H4407   1.083       .  S
C4395      C4396   1.416       .  A
C4395      H4408   1.078       .  S
C4396      C4402   1.437       .  A
C4396      C4397   1.424       .  A
C4397      C4399   1.399       .  A
C4397      C4398   1.409       .  A
C4398      H4409   1.085       .  S
C4399      C4400   1.390       .  A
C4399      H4410   1.084       .  S
C4400      C4401   1.401       .  A
C4400      H4411   1.084       .  S
C4401      C4402   1.419       .  A
C4401      C4406   1.407       .  A
C4402      C4403   1.414       .  A
C4403      C4404   1.403       .  A
C4403      H4412   1.078       .  S
C4404      C4405   1.411       .  A
C4404      H4413   1.083       .  S
C4405      C4406   1.413       .  A
C4406      H4414   1.078       .  S
C4415      C4416   1.404       .  A
C4415      C4420   1.407       .  A
C4416      C4417   1.388       .  A
C4416      H4429   1.083       .  S
C4417      C4418   1.410       .  A
C4417      H4430   1.076       .  S
C4418      C4424   1.430       .  A
C4418      C4419   1.423       .  A
C4419      C4421   1.402       .  A
C4419      C4420   1.417       .  A
C4420      H4431   1.084       .  S
C4421      C4422   1.398       .  A
C4421      H4432   1.084       .  S
C4422      C4423   1.403       .  A
C4422      H4433   1.084       .  S
C4423      C4424   1.420       .  A
C4423      C4428   1.415       .  A
C4424      C4425   1.409       .  A
C4425      C4426   1.388       .  A
C4425      H4434   1.076       .  S
C4426      C4427   1.410       .  A
C4426      H4435   1.082       .  S
C4427      C4428   1.415       .  A
C4428      H4436   1.080       .  S
C4437      C4438   1.401       .  A
C4437      C4442   1.403       .  A
C4438      C4439   1.397       .  A
C4438      H4451   1.083       .  S
C4439      C4440   1.415       .  A
C4439      H4452   1.077       .  S
C4440      C4446   1.430       .  A
C4440      C4441   1.422       .  A
C4441      C4443   1.400       .  A
C4441      C4442   1.405       .  A
C4442      H4453   1.084       .  S
C4443      C4444   1.390       .  A
C4443      H4454   1.084       .  S
C4444      C4445   1.400       .  A
C4444      H4455   1.084       .  S
C4445      C4446   1.420       .  A
C4445      C4450   1.404       .  A
C4446      C4447   1.411       .  A
C4447      C4448   1.395       .  A
C4447      H4456   1.077       .  S
C4448      C4449   1.412       .  A
C4448      H4457   1.080       .  S
C4449      C4450   1.411       .  A
C4450      H4458   1.085       .  S
C4459      C4460   1.396       .  A
C4459      C4464   1.400       .  A
C4460      C4461   1.399       .  A
C4460      H4473   1.084       .  S
C4461      C4462   1.418       .  A
C4461      H4474   1.077       .  S
C4462      C4468   1.430       .  A
C4462      C4463   1.422       .  A
C4463      C4465   1.400       .  A
C4463      C4464   1.406       .  A
C4464      H4475   1.085       .  S
C4465      C4466   1.391       .  A
C4465      H4476   1.084       .  S
C4466      C4467   1.400       .  A
C4466      H4477   1.084       .  S
C4467      C4468   1.421       .  A
C4467      C4472   1.407       .  A
C4468      C4469   1.409       .  A
C4469      C4470   1.394       .  A
C4469      H4478   1.077       .  S
C4470      C4471   1.413       .  A
C4470      H4479   1.080       .  S
C4471      C4472   1.410       .  A
C4472      H4480   1.084       .  S
C4481      C4482   1.410       .  A
C4481      C4486   1.412       .  A
C4482      C4483   1.395       .  A
C4482      H4495   1.083       .  S
C4483      C4484   1.411       .  A
C4483      H4496   1.077       .  S
C4484      C4490   1.431       .  A
C4484      C4485   1.420       .  A
C4485      C4487   1.401       .  A
C4485      C4486   1.408       .  A
C4486      H4497   1.080       .  S
C4487      C4488   1.391       .  A
C4487      H4498   1.084       .  S
C4488      C4489   1.399       .  A
C4488      H4499   1.084       .  S
C4489      C4490   1.422       .  A
C4489      C4494   1.407       .  A
C4490      C4491   1.415       .  A
C4491      C4492   1.397       .  A
C4491      H4500   1.078       .  S
C4492      C4493   1.401       .  A
C4492      H4501   1.083       .  S
C4493      C4494   1.402       .  A
C4494      H4502   1.084       .  S
C4503      C4504   1.397       .  A
C4503      C4508   1.400       .  A
C4504      C4505   1.399       .  A
C4504      H4517   1.083       .  S
C4505      C4506   1.418       .  A
C4505      H4518   1.077       .  S
C4506      C4512   1.431       .  A
C4506      C4507   1.421       .  A
C4507      C4509   1.400       .  A
C4507      C4508   1.405       .  A
C4508      H4519   1.085       .  S
C4509      C4510   1.391       .  A
C4509      H4520   1.084       .  S
C4510      C4511   1.400       .  A
C4510      H4521   1.084       .  S
C4511      C4512   1.422       .  A
C4511      C4516   1.409       .  A
C4512      C4513   1.410       .  A
C4513      C4514   1.393       .  A
C4513      H4522   1.077       .  S
C4514      C4515   1.410       .  A
C4514      H4523   1.083       .  S
C4515      C4516   1.409       .  A
C4516      H4524   1.080       .  S
C4525      C4526   1.409       .  A
C4525      C4530   1.415       .  A
C4526      C4527   1.394       .  A
C4526      H4539   1.083       .  S
C4527      C4528   1.413       .  A
C4527      H4540   1.076       .  S
C4528      C4534   1.432       .  A
C4528      C4529   1.419       .  A
C4529      C4531   1.403       .  A
C4529      C4530   1.412       .  A
C4530      H4541   1.080       .  S
C4531      C4532   1.395       .  A
C4531      H4542   1.084       .  S
C4532      C4533   1.401       .  A
C4532      H4543   1.084       .  S
C4533      C4534   1.424       .  A
C4533      C4538   1.417       .  A
C4534      C4535   1.410       .  A
C4535      C4536   1.391       .  A
C4535      H4544   1.077       .  S
C4536      C4537   1.406       .  A
C4536      H4545   1.083       .  S
C4537      C4538   1.405       .  A
C4538      H4546   1.084       .  S
C4547      C4548   1.403       .  A
C4547      C4552   1.402       .  A
C4548      C4549   1.404       .  A
C4548      H4561   1.083       .  S
C4549      C4550   1.417       .  A
C4549      H4562   1.078       .  S
C4550      C4556   1.438       .  A
C4550      C4551   1.424       .  A
C4551      C4553   1.399       .  A
C4551      C4552   1.408       .  A
C4552      H4563   1.085       .  S
C4553      C4554   1.389       .  A
C4553      H4564   1.084       .  S
C4554      C4555   1.400       .  A
C4554      H4565   1.084       .  S
C4555      C4556   1.420       .  A
C4555      C4560   1.406       .  A
C4556      C4557   1.415       .  A
C4557      C4558   1.404       .  A
C4557      H4566   1.078       .  S
C4558      C4559   1.411       .  A
C4558      H4567   1.083       .  S
C4559      C4560   1.414       .  A
C4560      H4568   1.079       .  S
C4569      C4570   1.399       .  A
C4569      C4574   1.402       .  A
C4570      C4571   1.398       .  A
C4570      H4583   1.083       .  S
C4571      C4572   1.416       .  A
C4571      H4584   1.078       .  S
C4572      C4578   1.429       .  A
C4572      C4573   1.421       .  A
C4573      C4575   1.400       .  A
C4573      C4574   1.404       .  A
C4574      H4585   1.085       .  S
C4575      C4576   1.391       .  A
C4575      H4586   1.084       .  S
C4576      C4577   1.400       .  A
C4576      H4587   1.084       .  S
C4577      C4578   1.419       .  A
C4577      C4582   1.405       .  A
C4578      C4579   1.411       .  A
C4579      C4580   1.396       .  A
C4579      H4588   1.078       .  S
C4580      C4581   1.411       .  A
C4580      H4589   1.079       .  S
C4581      C4582   1.412       .  A
C4582      H4590   1.085       .  S
C4591      C4592   1.400       .  A
C4591      C4596   1.400       .  A
C4592      C4593   1.400       .  A
C4592      H4605   1.083       .  S
C4593      C4594   1.416       .  A
C4593      H4606   1.078       .  S
C4594      C4600   1.429       .  A
C4594      C4595   1.421       .  A
C4595      C4597   1.399       .  A
C4595      C4596   1.400       .  A
C4596      H4607   1.085       .  S
C4597      C4598   1.387       .  A
C4597      H4608   1.084       .  S
C4598      C4599   1.398       .  A
C4598      H4609   1.084       .  S
C4599      C4600   1.419       .  A
C4599      C4604   1.400       .  A
C4600      C4601   1.412       .  A
C4601      C4602   1.398       .  A
C4601      H4610   1.078       .  S
C4602      C4603   1.411       .  A
C4602      H4611   1.078       .  S
C4603      C4604   1.410       .  A
C4604      H4612   1.085       .  S
C4613      C4614   1.403       .  A
C4613      C4618   1.404       .  A
C4614      C4615   1.393       .  A
C4614      H4627   1.083       .  S
C4615      C4616   1.412       .  A
C4615      H4628   1.077       .  S
C4616      C4622   1.430       .  A
C4616      C4617   1.423       .  A
C4617      C4619   1.400       .  A
C4617      C4618   1.410       .  A
C4618      H4629   1.084       .  S
C4619      C4620   1.392       .  A
C4619      H4630   1.084       .  S
C4620      C4621   1.401       .  A
C4620      H4631   1.084       .  S
C4621      C4622   1.420       .  A
C4621      C4626   1.408       .  A
C4622      C4623   1.412       .  A
C4623      C4624   1.393       .  A
C4623      H4632   1.077       .  S
C4624      C4625   1.408       .  A
C4624      H4633   1.083       .  S
C4625      C4626   1.413       .  A
C4626      H4634   1.080       .  S
C4635      C4636   1.412       .  A
C4635      C4640   1.412       .  A
C4636      C4637   1.399       .  A
C4636      H4649   1.078       .  S
C4637      C4638   1.412       .  A
C4637      H4650   1.077       .  S
C4638      C4644   1.434       .  A
C4638      C4639   1.420       .  A
C4639      C4641   1.399       .  A
C4639      C4640   1.405       .  A
C4640      H4651   1.085       .  S
C4641      C4642   1.389       .  A
C4641      H4652   1.084       .  S
C4642      C4643   1.400       .  A
C4642      H4653   1.084       .  S
C4643      C4644   1.421       .  A
C4643      C4648   1.405       .  A
C4644      C4645   1.417       .  A
C4645      C4646   1.401       .  A
C4645      H4654   1.077       .  S
C4646      C4647   1.401       .  A
C4646      H4655   1.083       .  S
C4647      C4648   1.405       .  A
C4648      H4656   1.084       .  S
C4657      C4658   1.411       .  A
C4657      C4662   1.410       .  A
C4658      C4659   1.395       .  A
C4658      H4671   1.079       .  S
C4659      C4660   1.411       .  A
C4659      H4672   1.077       .  S
C4660      C4666   1.432       .  A
C4660      C4661   1.420       .  A
C4661      C4663   1.400       .  A
C4661      C4662   1.407       .  A
C4662      H4673   1.085       .  S
C4663      C4664   1.391       .  A
C4663      H4674   1.084       .  S
C4664      C4665   1.400       .  A
C4664      H4675   1.084       .  S
C4665      C4666   1.422       .  A
C4665      C4670   1.407       .  A
C4666      C4667   1.415       .  A
C4667      C4668   1.397       .  A
C4667      H4676   1.077       .  S
C4668      C4669   1.401       .  A
C4668      H4677   1.083       .  S
C4669      C4670   1.404       .  A
C4670      H4678   1.084       .  S
C4679      C4680   1.402       .  A
C4679      C4684   1.404       .  A
C4680      C4681   1.407       .  A
C4680      H4693   1.083       .  S
C4681      C4682   1.419       .  A
C4681      H4694   1.079       .  S
C4682      C4688   1.436       .  A
C4682      C4683   1.421       .  A
C4683      C4685   1.399       .  A
C4683      C4684   1.402       .  A
C4684      H4695   1.085       .  S
C4685      C4686   1.387       .  A
C4685      H4696   1.084       .  S
C4686      C4687   1.399       .  A
C4686      H4697   1.084       .  S
C4687      C4688   1.421       .  A
C4687      C4692   1.404       .  A
C4688      C4689   1.414       .  A
C4689      C4690   1.403       .  A
C4689      H4698   1.079       .  S
C4690      C4691   1.410       .  A
C4690      H4699   1.083       .  S
C4691      C4692   1.411       .  A
C4692      H4700   1.082       .  S
C4701      C4702   1.395       .  A
C4701      C4706   1.401       .  A
C4702      C4703   1.395       .  A
C4702      H4715   1.084       .  S
C4703      C4704   1.416       .  A
C4703      H4716   1.077       .  S
C4704      C4710   1.428       .  A
C4704      C4705   1.421       .  A
C4705      C4707   1.401       .  A
C4705      C4706   1.406       .  A
C4706      H4717   1.085       .  S
C4707      C4708   1.393       .  A
C4707      H4718   1.084       .  S
C4708      C4709   1.401       .  A
C4708      H4719   1.084       .  S
C4709      C4710   1.420       .  A
C4709      C4714   1.409       .  A
C4710      C4711   1.408       .  A
C4711      C4712   1.391       .  A
C4711      H4720   1.077       .  S
C4712      C4713   1.413       .  A
C4712      H4721   1.080       .  S
C4713      C4714   1.412       .  A
C4714      H4722   1.084       .  S
C4723      C4724   1.410       .  A
C4723      C4728   1.410       .  A
C4724      C4725   1.391       .  A
C4724      H4737   1.083       .  S
C4725      C4726   1.409       .  A
C4725      H4738   1.077       .  S
C4726      C4732   1.428       .  A
C4726      C4727   1.421       .  A
C4727      C4729   1.400       .  A
C4727      C4728   1.406       .  A
C4728      H4739   1.080       .  S
C4729      C4730   1.390       .  A
C4729      H4740   1.084       .  S
C4730      C4731   1.400       .  A
C4730      H4741   1.084       .  S
C4731      C4732   1.421       .  A
C4731      C4736   1.403       .  A
C4732      C4733   1.416       .  A
C4733      C4734   1.396       .  A
C4733      H4742   1.077       .  S
C4734      C4735   1.399       .  A
C4734      H4743   1.083       .  S
C4735      C4736   1.403       .  A
C4736      H4744   1.085       .  S
C4745      C4746   1.402       .  A
C4745      C4750   1.406       .  A
C4746      C4747   1.402       .  A
C4746      H4759   1.083       .  S
C4747      C4748   1.416       .  A
C4747      H4760   1.078       .  S
C4748      C4754   1.433       .  A
C4748      C4749   1.421       .  A
C4749      C4751   1.401       .  A
C4749      C4750   1.406       .  A
C4750      H4761   1.084       .  S
C4751      C4752   1.391       .  A
C4751      H4762   1.084       .  S
C4752      C4753   1.400       .  A
C4752      H4763   1.084       .  S
C4753      C4754   1.420       .  A
C4753      C4758   1.407       .  A
C4754      C4755   1.411       .  A
C4755      C4756   1.399       .  A
C4755      H4764   1.078       .  S
C4756      C4757   1.412       .  A
C4756      H4765   1.079       .  S
C4757      C4758   1.412       .  A
C4758      H4766   1.084       .  S
C4767      C4768   1.409       .  A
C4767      C4772   1.409       .  A
C4768      C4769   1.395       .  A
C4768      H4781   1.079       .  S
C4769      C4770   1.412       .  A
C4769      H4782   1.077       .  S
C4770      C4776   1.428       .  A
C4770      C4771   1.419       .  A
C4771      C4773   1.399       .  A
C4771      C4772   1.400       .  A
C4772      H4783   1.085       .  S
C4773      C4774   1.388       .  A
C4773      H4784   1.084       .  S
C4774      C4775   1.399       .  A
C4774      H4785   1.084       .  S
C4775      C4776   1.422       .  A
C4775      C4780   1.403       .  A
C4776      C4777   1.414       .  A
C4777      C4778   1.395       .  A
C4777      H4786   1.077       .  S
C4778      C4779   1.401       .  A
C4778      H4787   1.083       .  S
C4779      C4780   1.403       .  A
C4780      H4788   1.084       .  S
C4789      C4790   1.399       .  A
C4789      C4794   1.400       .  A
C4790      C4791   1.406       .  A
C4790      H4803   1.083       .  S
C4791      C4792   1.419       .  A
C4791      H4804   1.078       .  S
C4792      C4798   1.434       .  A
C4792      C4793   1.421       .  A
C4793      C4795   1.398       .  A
C4793      C4794   1.400       .  A
C4794      H4805   1.085       .  S
C4795      C4796   1.387       .  A
C4795      H4806   1.084       .  S
C4796      C4797   1.399       .  A
C4796      H4807   1.084       .  S
C4797      C4798   1.421       .  A
C4797      C4802   1.405       .  A
C4798      C4799   1.411       .  A
C4799      C4800   1.401       .  A
C4799      H4808   1.078       .  S
C4800      C4801   1.414       .  A
C4800      H4809   1.083       .  S
C4801      C4802   1.412       .  A
C4802      H4810   1.078       .  S
C4811      C4812   1.411       .  A
C4811      C4816   1.410       .  A
C4812      C4813   1.399       .  A
C4812      H4825   1.083       .  S
C4813      C4814   1.413       .  A
C4813      H4826   1.078       .  S
C4814      C4820   1.432       .  A
C4814      C4815   1.420       .  A
C4815      C4817   1.399       .  A
C4815      C4816   1.401       .  A
C4816      H4827   1.079       .  S
C4817      C4818   1.386       .  A
C4817      H4828   1.084       .  S
C4818      C4819   1.398       .  A
C4818      H4829   1.084       .  S
C4819      C4820   1.422       .  A
C4819      C4824   1.401       .  A
C4820      C4821   1.417       .  A
C4821      C4822   1.401       .  A
C4821      H4830   1.078       .  S
C4822      C4823   1.402       .  A
C4822      H4831   1.083       .  S
C4823      C4824   1.400       .  A
C4824      H4832   1.085       .  S
C4833      C4834   1.397       .  A
C4833      C4838   1.398       .  A
C4834      C4835   1.398       .  A
C4834      H4847   1.084       .  S
C4835      C4836   1.416       .  A
C4835      H4848   1.077       .  S
C4836      C4842   1.433       .  A
C4836      C4837   1.424       .  A
C4837      C4839   1.399       .  A
C4837      C4838   1.408       .  A
C4838      H4849   1.085       .  S
C4839      C4840   1.390       .  A
C4839      H4850   1.084       .  S
C4840      C4841   1.401       .  A
C4840      H4851   1.084       .  S
C4841      C4842   1.420       .  A
C4841      C4846   1.407       .  A
C4842      C4843   1.413       .  A
C4843      C4844   1.397       .  A
C4843      H4852   1.077       .  S
C4844      C4845   1.410       .  A
C4844      H4853   1.083       .  S
C4845      C4846   1.413       .  A
C4846      H4854   1.079       .  S
C4855      C4856   1.410       .  A
C4855      C4860   1.410       .  A
C4856      C4857   1.393       .  A
C4856      H4869   1.083       .  S
C4857      C4858   1.410       .  A
C4857      H4870   1.077       .  S
C4858      C4864   1.431       .  A
C4858      C4859   1.422       .  A
C4859      C4861   1.400       .  A
C4859      C4860   1.408       .  A
C4860      H4871   1.081       .  S
C4861      C4862   1.391       .  A
C4861      H4872   1.084       .  S
C4862      C4863   1.400       .  A
C4862      H4873   1.084       .  S
C4863      C4864   1.421       .  A
C4863      C4868   1.405       .  A
C4864      C4865   1.417       .  A
C4865      C4866   1.398       .  A
C4865      H4874   1.077       .  S
C4866      C4867   1.399       .  A
C4866      H4875   1.083       .  S
C4867      C4868   1.404       .  A
C4868      H4876   1.085       .  S
C4877      C4878   1.401       .  A
C4877      C4882   1.404       .  A
C4878      C4879   1.401       .  A
C4878      H4891   1.083       .  S
C4879      C4880   1.417       .  A
C4879      H4892   1.078       .  S
C4880      C4886   1.432       .  A
C4880      C4881   1.421       .  A
C4881      C4883   1.399       .  A
C4881      C4882   1.402       .  A
C4882      H4893   1.084       .  S
C4883      C4884   1.388       .  A
C4883      H4894   1.084       .  S
C4884      C4885   1.399       .  A
C4884      H4895   1.084       .  S
C4885      C4886   1.420       .  A
C4885      C4890   1.402       .  A
C4886      C4887   1.412       .  A
C4887      C4888   1.399       .  A
C4887      H4896   1.078       .  S
C4888      C4889   1.411       .  A
C4888      H4897   1.079       .  S
C4889      C4890   1.410       .  A
C4890      H4898   1.084       .  S
C4899      C4900   1.410       .  A
C4899      C4904   1.411       .  A
C4900      C4901   1.403       .  A
C4900      H4913   1.079       .  S
C4901      C4902   1.414       .  A
C4901      H4914   1.079       .  S
C4902      C4908   1.433       .  A
C4902      C4903   1.418       .  A
C4903      C4905   1.399       .  A
C4903      C4904   1.401       .  A
C4904      H4915   1.083       .  S
C4905      C4906   1.389       .  A
C4905      H4916   1.084       .  S
C4906      C4907   1.399       .  A
C4906      H4917   1.084       .  S
C4907      C4908   1.423       .  A
C4907      C4912   1.404       .  A
C4908      C4909   1.416       .  A
C4909      C4910   1.403       .  A
C4909      H4918   1.079       .  S
C4910      C4911   1.401       .  A
C4910      H4919   1.083       .  S
C4911      C4912   1.400       .  A
C4912      H4920   1.085       .  S
C4921      C4922   1.398       .  A
C4921      C4926   1.398       .  A
C4922      C4923   1.404       .  A
C4922      H4935   1.083       .  S
C4923      C4924   1.420       .  A
C4923      H4936   1.078       .  S
C4924      C4930   1.432       .  A
C4924      C4925   1.421       .  A
C4925      C4927   1.398       .  A
C4925      C4926   1.399       .  A
C4926      H4937   1.085       .  S
C4927      C4928   1.386       .  A
C4927      H4938   1.084       .  S
C4928      C4929   1.398       .  A
C4928      H4939   1.084       .  S
C4929      C4930   1.422       .  A
C4929      C4934   1.404       .  A
C4930      C4931   1.411       .  A
C4931      C4932   1.398       .  A
C4931      H4940   1.078       .  S
C4932      C4933   1.411       .  A
C4932      H4941   1.083       .  S
C4933      C4934   1.408       .  A
C4934      H4942   1.079       .  S
C4943      C4944   1.402       .  A
C4943      C4948   1.403       .  A
C4944      C4945   1.399       .  A
C4944      H4957   1.083       .  S
C4945      C4946   1.415       .  A
C4945      H4958   1.078       .  S
C4946      C4952   1.432       .  A
C4946      C4947   1.422       .  A
C4947      C4949   1.400       .  A
C4947      C4948   1.407       .  A
C4948      H4959   1.084       .  S
C4949      C4950   1.391       .  A
C4949      H4960   1.084       .  S
C4950      C4951   1.400       .  A
C4950      H4961   1.084       .  S
C4951      C4952   1.420       .  A
C4951      C4956   1.406       .  A
C4952      C4953   1.413       .  A
C4953      C4954   1.398       .  A
C4953      H4962   1.078       .  S
C4954      C4955   1.409       .  A
C4954      H4963   1.083       .  S
C4955      C4956   1.411       .  A
C4956      H4964   1.081       .  S
C4965      C4966   1.408       .  A
C4965      C4970   1.412       .  A
C4966      C4967   1.396       .  A
C4966      H4979   1.083       .  S
C4967      C4968   1.412       .  A
C4967      H4980   1.077       .  S
C4968      C4974   1.429       .  A
C4968      C4969   1.419       .  A
C4969      C4971   1.401       .  A
C4969      C4970   1.405       .  A
C4970      H4981   1.082       .  S
C4971      C4972   1.390       .  A
C4971      H4982   1.084       .  S
C4972      C4973   1.399       .  A
C4972      H4983   1.084       .  S
C4973      C4974   1.424       .  A
C4973      C4978   1.406       .  A
C4974      C4975   1.415       .  A
C4975      C4976   1.395       .  A
C4975      H4984   1.077       .  S
C4976      C4977   1.397       .  A
C4976      H4985   1.084       .  S
C4977      C4978   1.397       .  A
C4978      H4986   1.085       .  S
C4987      C4988   1.401       .  A
C4987      C4992   1.403       .  A
C4988      C4989   1.393       .  A
C4988      H5001   1.083       .  S
C4989      C4990   1.412       .  A
C4989      H5002   1.078       .  S
C4990      C4996   1.428       .  A
C4990      C4991   1.423       .  A
C4991      C4993   1.401       .  A
C4991      C4992   1.410       .  A
C4992      H5003   1.084       .  S
C4993      C4994   1.393       .  A
C4993      H5004   1.084       .  S
C4994      C4995   1.401       .  A
C4994      H5005   1.084       .  S
C4995      C4996   1.418       .  A
C4995      C5000   1.406       .  A
C4996      C4997   1.411       .  A
C4997      C4998   1.394       .  A
C4997      H5006   1.078       .  S
C4998      C4999   1.409       .  A
C4998      H5007   1.080       .  S
C4999      C5000   1.413       .  A
C5000      H5008   1.084       .  S
