geometry optimzed in LAMMPS
_audit_creation_date              2020-11-30 
_audit_creation_method            'lammps2cif' 
_symmetry_space_group_name_H-M    'P1' 
_symmetry_Int_Tables_number       1 
_symmetry_cell_setting            triclinic 
loop_ 
_symmetry_equiv_pos_as_xyz 
  x,y,z 
_cell_length_a                    43.052754805908 
_cell_length_b                    43.216145506913904 
_cell_length_c                    43.117751759926286 
_cell_angle_alpha                 89.95355901785496 
_cell_angle_beta                  89.79387233676232 
_cell_angle_gamma                 89.95971745186203 
loop_ 
_atom_site_label 
_atom_site_type_symbol 
_atom_site_fract_x 
_atom_site_fract_y 
_atom_site_fract_z 
_atom_site_charge 
C1          C  0.76549981  0.73458432  0.77956517     0.03330
C2          C  0.74607282  0.75931049  0.78849210    -0.12820
C3          C  0.73696725  0.78198323  0.76732036     0.00830
C4          C  0.75015949  0.78239538  0.73765467    -0.11350
C5          C  0.77104177  0.75925859  0.72863218     0.03320
C6          C  0.77719832  0.73446883  0.74896823    -0.10770
H7          H  0.73717546  0.76090649  0.81195293     0.08910
H8          H  0.74468831  0.80103599  0.72189201     0.06440
H9          H  0.79173183  0.71573653  0.74095711     0.06290
C10         C  0.27694941  0.76628613  0.30157621     0.03330
C11         C  0.28201919  0.79326834  0.28395433    -0.12820
C12         C  0.26955326  0.79619295  0.25387546     0.00830
C13         C  0.25089621  0.77173536  0.24279498    -0.11350
C14         C  0.24246851  0.74688528  0.26177794     0.03320
C15         C  0.25609639  0.74388960  0.29104302    -0.10770
H16         H  0.29592869  0.81139209  0.29385946     0.08910
H17         H  0.24170872  0.77222031  0.21945806     0.06440
H18         H  0.25086305  0.72397120  0.30541512     0.06290
C19         C  0.75133333  0.76795852  0.29288414     0.03330
C20         C  0.77669115  0.78663221  0.28488685    -0.12820
C21         C  0.79417402  0.78061067  0.25791188     0.00830
C22         C  0.78506677  0.75621884  0.23844159    -0.11350
C23         C  0.76028836  0.73681526  0.24688588     0.03320
C24         C  0.74347217  0.74278821  0.27405393    -0.10770
H25         H  0.78290314  0.80581356  0.29980561     0.08910
H26         H  0.79712937  0.75210889  0.21682412     0.06440
H27         H  0.72448234  0.72768982  0.28070403     0.06290
C28         C  0.23419024  0.27617959  0.27271428     0.03330
C29         C  0.24661117  0.25713427  0.29585226    -0.12820
C30         C  0.27454556  0.24126865  0.29066303     0.00830
C31         C  0.29108611  0.24651279  0.26320079    -0.11350
C32         C  0.27799704  0.26355692  0.23872884     0.03320
C33         C  0.24937973  0.27837315  0.24382641    -0.10770
H34         H  0.23488421  0.25478143  0.31791813     0.08910
H35         H  0.31362632  0.23583055  0.26051273     0.06440
H36         H  0.23890013  0.29206799  0.22560315     0.06290
C37         C  0.79718665  0.25471608  0.26765994     0.03330
C38         C  0.78736702  0.27858383  0.28741829    -0.12820
C39         C  0.76275844  0.29808689  0.27881175     0.00830
C40         C  0.74612369  0.29191114  0.25162850    -0.11350
C41         C  0.75489187  0.26722404  0.23241283     0.03320
C42         C  0.78095199  0.24945027  0.23995168    -0.10770
H43         H  0.79859665  0.28202413  0.30953000     0.08910
H44         H  0.72626458  0.30607003  0.24557541     0.06440
H45         H  0.78821824  0.23100418  0.22451656     0.06290
C46         C  0.72577589  0.25390205  0.76743816     0.03330
C47         C  0.73566407  0.27639190  0.74644440    -0.12820
C48         C  0.76371798  0.29152409  0.75116251     0.00830
C49         C  0.78298748  0.28240508  0.77540428    -0.11350
C50         C  0.77225609  0.26213347  0.79896456     0.03320
C51         C  0.74278831  0.24848981  0.79478630    -0.10770
H52         H  0.72154784  0.28212983  0.72646748     0.08910
H53         H  0.80589889  0.29263577  0.77636031     0.06440
H54         H  0.73269463  0.23375615  0.81215910     0.06290
C55         C  0.25189438  0.76346661  0.73536562     0.03330
C56         C  0.27344540  0.74177726  0.74687127    -0.12820
C57         C  0.29085175  0.74804815  0.77335731     0.00830
C58         C  0.28247086  0.77247544  0.79235319    -0.11350
C59         C  0.26236133  0.79578065  0.78166587     0.03320
C60         C  0.24919650  0.79191277  0.75191965    -0.10770
H61         H  0.27752466  0.72009324  0.73629742     0.08910
H62         H  0.29326114  0.77367375  0.81493389     0.06440
H63         H  0.23643983  0.81082532  0.74181237     0.06290
O64         O  0.98453956  0.05943645  0.04859875    -0.88150
C65         C  0.05998563  0.11424842  0.03774532     0.87880
Mg66       Mg  0.98166506  0.02796411  0.08709849     1.58150
O67         O  0.05835300  0.05092883  0.98644110    -0.87880
O68         O  0.98568970  0.05706664  0.99764634    -0.75210
C69         C  0.12194358  0.96522290  0.09650755     0.92930
O70         O  0.02797822  0.09036313  0.10070630    -0.75020
O71         O  0.09769419  0.96679359  0.11336689    -0.82530
Mg72       Mg  0.99745560  0.10635889  0.06014027     1.57960
C73         C  0.13623875  0.99765647  0.97228888     0.92860
O74         O  0.96625828  0.12887053  0.02185113    -0.80790
H75         H  0.03591190  0.02577685  0.95469300    -0.06130
C76         C  0.11059992  0.04267814  0.06292629     0.87800
O77         O  0.99849564  0.98739376  0.05709084    -0.75300
O78         O  0.03581626  0.10125735  0.02942922    -0.88060
O79         O  0.12754517  0.02576916  0.96863992    -0.80870
C80         C  0.09294378  0.12358019  0.95941259     0.92970
C81         C  0.96940149  0.13710116  0.99352627     0.92820
Mg82       Mg  0.08789998  0.98645850  0.02917241     1.57950
O83         O  0.12120016  0.97238901  0.06786619    -0.80800
O84         O  0.05686614  0.00005370  0.98803317    -0.75040
O85         O  0.06449052  0.12165264  0.96699724    -0.80880
O86         O  0.95905967  0.11202700  0.09606189    -0.82590
O87         O  0.02375933  0.97074683  0.13011924    -0.80910
C88         C  0.05016017  0.02579287  0.97528744     0.87260
O89         O  0.04939409  0.98869609  0.06030360    -0.88050
O90         O  0.09911119  0.03343513  0.03837375    -0.88150
O91         O  0.09927131  0.03535799  0.08916978    -0.75210
Mg92       Mg  0.02629545  0.08837603  0.98266603     1.57970
O93         O  0.11074054  0.10009353  0.96191137    -0.82590
H94         H  0.95292461  0.03596264  0.02421085    -0.06310
O95         O  0.02789382  0.03969710  0.10034772    -0.87850
H96         H  0.04960528  0.06409331  0.13311488    -0.06130
H97         H  0.02685236  0.95521102  0.03766076    -0.06310
C98         C  0.03545089  0.06447510  0.11245904     0.87240
C99         C  0.97329792  0.05056465  0.02371284     0.87820
C100        C  0.02518551  0.97598130  0.05152903     0.87870
H101        H  0.13037210  0.05806000  0.06201427    -0.06290
O102        O  0.08664587  0.10377773  0.03055843    -0.75320
Mg103      Mg  0.06032891  0.00323540  0.10661030     1.58000
H104        H  0.05839124  0.13466309  0.05213776    -0.06310
C105        C  0.95521886  0.09427900  0.11937476     0.92860
O106        O  0.97779820  0.99423423  0.12689097    -0.82550
C107        C  0.99535526  0.97355625  0.13836828     0.92920
O108        O  0.99167464  0.12694334  0.97698723    -0.82530
Mg109      Mg  0.10462902  0.06385320  0.00003820     1.58180
O110        O  0.96335964  0.06597581  0.11906334    -0.80870
O111        O  0.12712699  0.98210257  0.99546823    -0.82560
C112        C  0.14455930  0.30018347  0.94208626     0.03330
C113        C  0.13686202  0.26971780  0.95081019    -0.12820
C114        C  0.14793907  0.24412679  0.93394577     0.00830
C115        C  0.16766946  0.24921052  0.90869327    -0.11350
C116        C  0.17702598  0.27914552  0.90055404     0.03320
C117        C  0.16485270  0.30478201  0.91672046    -0.10770
H118        H  0.12060921  0.26600001  0.96971237     0.08910
H119        H  0.17472181  0.22998303  0.89423514     0.06440
H120        H  0.17004492  0.32795145  0.90869937     0.06290
C121        C  0.93624355  0.13320488  0.29912247     0.03330
C122        C  0.91290312  0.15567609  0.30316652    -0.12820
C123        C  0.89719303  0.16764947  0.27731968     0.00830
C124        C  0.90585313  0.15841047  0.24747891    -0.11350
C125        C  0.92914196  0.13637384  0.24309134     0.03320
C126        C  0.94424067  0.12360844  0.26893447    -0.10770
H127        H  0.90658957  0.16336272  0.32624662     0.08910
H128        H  0.89390131  0.16796690  0.22753865     0.06440
H129        H  0.96180918  0.10593873  0.26561612     0.06290
C130        C  0.30214617  0.94335510  0.13955877     0.03330
C131        C  0.30374506  0.91680163  0.15860862    -0.12820
C132        C  0.27630938  0.90356528  0.17103922     0.00830
C133        C  0.24792118  0.91825151  0.16465294    -0.11350
C134        C  0.24582363  0.94114641  0.14191872     0.03320
C135        C  0.27300688  0.95447058  0.13025086    -0.10770
H136        H  0.32618736  0.90655768  0.16327102     0.08910
H137        H  0.22677589  0.91021532  0.17551192     0.06440
H138        H  0.27154181  0.97325978  0.11368011     0.06290
O139        O  0.98043895  0.48729557  0.47344167    -0.88150
C140        C  0.98675923  0.56235909  0.42001576     0.87880
Mg141      Mg  0.94323615  0.48506847  0.50646393     1.58150
O142        O  0.04398279  0.55986167  0.47788277    -0.87880
O143        O  0.03152712  0.48796584  0.47227802    -0.75210
C144        C  0.94206585  0.62354987  0.57308998     0.92930
O145        O  0.92674508  0.53070785  0.44548745    -0.75020
O146        O  0.92385057  0.60034321  0.57186414    -0.82530
Mg147      Mg  0.96638225  0.49950607  0.42739161     1.57960
C148        C  0.06333826  0.63699268  0.53059562     0.92860
O149        O  0.00343108  0.46735637  0.40414391    -0.80790
H150        H  0.07717653  0.53624360  0.50000888    -0.06130
C151        C  0.96930923  0.61371923  0.49350900     0.87800
O152        O  0.97577198  0.50036685  0.54571058    -0.75300
O153        O  0.99701898  0.53778495  0.43051592    -0.88060
O154        O  0.06399454  0.62894239  0.50209402    -0.80870
C155        C  0.06604982  0.59484692  0.40407141     0.92970
C156        C  0.03087737  0.47071527  0.39335908     0.92820
Mg157      Mg  0.00691832  0.58851163  0.54641027     1.57950
O158        O  0.97017230  0.62210918  0.56404509    -0.80800
O159        O  0.04614771  0.55698663  0.52880644    -0.75040
O160        O  0.05852718  0.56637111  0.40498398    -0.80880
O161        O  0.93109769  0.46082794  0.42420662    -0.82590
O162        O  0.90509306  0.52668488  0.56704989    -0.80910
C163        C  0.05686559  0.55084613  0.50194084     0.87260
O164        O  0.97432113  0.55117677  0.54547186    -0.88050
O165        O  0.99406517  0.60109493  0.50063057    -0.88150
O166        O  0.94321971  0.60283670  0.50190586    -0.75210
Mg167      Mg  0.04461036  0.52833334  0.43969635     1.57970
O168        O  0.06428979  0.61225851  0.42780708    -0.82590
H169        H  0.00621591  0.45585080  0.49571869    -0.06310
O170        O  0.93060802  0.53168213  0.49610658    -0.87850
H171        H  0.89669189  0.55379774  0.47354191    -0.06130
H172        H  0.99806115  0.52716622  0.57720451    -0.06310
C173        C  0.91702803  0.53918559  0.47202482     0.87240
C174        C  0.00584164  0.47598853  0.48082948     0.87820
C175        C  0.98298640  0.52648195  0.55721973     0.87870
H176        H  0.96985619  0.63404778  0.47888608    -0.06290
O177        O  0.99497042  0.58848500  0.43066601    -0.75320
Mg178      Mg  0.92722866  0.56352034  0.53396941     1.58000
H179        H  0.96973271  0.56156801  0.40166710    -0.06310
C180        C  0.90757324  0.45846599  0.44194987     0.92860
O181        O  0.90529420  0.48186599  0.54174336    -0.82550
C182        C  0.89611866  0.49866641  0.56416204     0.92920
O183        O  0.04732102  0.49398195  0.40072264    -0.82530
Mg184      Mg  0.02942091  0.60618160  0.46704504     1.58180
O185        O  0.90845622  0.46755083  0.47004021    -0.80870
O186        O  0.04223920  0.62683960  0.54867295    -0.82560
C187        C  0.73000972  0.43926279  0.39743508     0.03330
C188        C  0.72611092  0.41631296  0.37454248    -0.12820
C189        C  0.75109833  0.39728632  0.36587486     0.00830
C190        C  0.78027129  0.40177021  0.37926488    -0.11350
C191        C  0.78452630  0.42425064  0.40206815     0.03320
C192        C  0.75926780  0.44244065  0.41166799    -0.10770
H193        H  0.70379590  0.41330664  0.36341664     0.08910
H194        H  0.79985758  0.38788161  0.37166592     0.06440
H195        H  0.76266676  0.45961667  0.42959231     0.06290
C196        C  0.09649448  0.63506679  0.22764998     0.03330
C197        C  0.12186111  0.65501161  0.22271008    -0.12820
C198        C  0.13548770  0.67037363  0.24792114     0.00830
C199        C  0.12479912  0.66490119  0.27807034    -0.11350
C200        C  0.10265413  0.64208113  0.28385177     0.03320
C201        C  0.08770072  0.62825874  0.25843874    -0.10770
H202        H  0.13157751  0.65799911  0.19977302     0.08910
H203        H  0.13461570  0.67788405  0.29702447     0.06440
H204        H  0.06951266  0.61144491  0.26264775     0.06290
C205        C  0.88869784  0.80263744  0.59007088     0.03330
C206        C  0.86370850  0.80280758  0.61110495    -0.12820
C207        C  0.85275620  0.77483029  0.62356945     0.00830
C208        C  0.86533112  0.74679921  0.61341930    -0.11350
C209        C  0.89159227  0.74607310  0.59405980     0.03320
C210        C  0.90368793  0.77444161  0.58324018    -0.10770
H211        H  0.85361280  0.82455761  0.61852695     0.08910
H212        H  0.85585672  0.72542276  0.62261182     0.06440
H213        H  0.92520195  0.77507850  0.57043405     0.06290
O214        O  0.09074434  0.97387325  0.50981675    -0.88150
C215        C  0.00464423  0.97669475  0.54779548     0.87880
Mg216      Mg  0.11147904  0.01318021  0.48964086     1.58150
O217        O  0.01039137  0.93573531  0.47808862    -0.87880
O218        O  0.07866226  0.92575733  0.49959127    -0.75210
C219        C  0.00267019  0.06833085  0.39635667     0.92930
O220        O  0.05811831  0.02975264  0.54559685    -0.75020
O221        O  0.02585235  0.07837267  0.41159883    -0.82530
Mg222      Mg  0.07348634  0.97933316  0.55557667     1.57960
C223        C  0.95211082  0.94907922  0.40649281     0.92860
O224        O  0.09218063  0.92873255  0.56499759    -0.80790
H225        H  0.03153203  0.90337997  0.45248473    -0.06130
C226        C  0.98083350  0.02516370  0.47348613     0.87800
O227        O  0.09877407  0.99594343  0.44127488    -0.75300
O228        O  0.02873114  0.96401958  0.53841483    -0.88060
O229        O  0.95153340  0.93909853  0.43441205    -0.80870
C230        C  0.95368020  0.90379066  0.53157899     0.92970
C231        C  0.07797611  0.90290261  0.56752024     0.92820
Mg232      Mg  0.00944854  0.99360153  0.41799955     1.57950
O233        O  0.99311511  0.04062702  0.39969807    -0.80800
O234        O  0.02544661  0.94433268  0.43025872    -0.75040
O235        O  0.98176813  0.90620795  0.54019603    -0.80880
O236        O  0.11907896  0.99928908  0.57454654    -0.82590
O237        O  0.09751893  0.07026705  0.43408926    -0.80910
C238        C  0.02244262  0.92667707  0.45365270     0.87260
O239        O  0.05123085  0.01210480  0.43481232    -0.88050
O240        O  0.98799232  0.99974211  0.46225182    -0.88150
O241        O  0.99967076  0.04788219  0.47388149    -0.75210
Mg242      Mg  0.02934611  0.91883579  0.51993392     1.57970
O243        O  0.94400962  0.91756283  0.50724243    -0.82590
H244        H  0.12002097  0.94524031  0.48789071    -0.06310
O245        O  0.06869470  0.03780526  0.49618214    -0.87850
H246        H  0.05083408  0.07073764  0.52359534    -0.06130
H247        H  0.07485301  0.99048212  0.40122171    -0.06310
C248        C  0.05911464  0.04719162  0.52169316     0.87240
C249        C  0.09757512  0.94834329  0.49876823     0.87820
C250        C  0.07490241  0.99958238  0.42456949     0.87870
H251        H  0.95814060  0.02793069  0.48393532    -0.06290
O252        O  0.98019985  0.97791268  0.53121598    -0.75320
Mg253      Mg  0.04890085  0.05728190  0.45463742     1.58000
H254        H  0.00445084  0.98729004  0.57049965    -0.06310
C255        C  0.13381606  0.02241796  0.56358232     0.92860
O256        O  0.13372368  0.05355435  0.46703532    -0.82550
C257        C  0.12562679  0.06896745  0.44338409     0.92920
O258        O  0.04892832  0.90217851  0.56455954    -0.82530
Mg259      Mg  0.96693503  0.95909581  0.48263854     1.58180
O260        O  0.13015264  0.03093683  0.53559913    -0.80870
O261        O  0.96657582  0.97353475  0.39908203    -0.82560
C262        C  0.14269960  0.73118134  0.58546547     0.03330
C263        C  0.16134588  0.72948362  0.61207366    -0.12820
C264        C  0.17066112  0.75665545  0.62742718     0.00830
C265        C  0.16222586  0.78555415  0.61523095    -0.11350
C266        C  0.14481771  0.78772921  0.58789447     0.03320
C267        C  0.13621305  0.76025200  0.57259242    -0.10770
H268        H  0.16751513  0.70712278  0.62156560     0.08910
H269        H  0.16819959  0.80633075  0.62784683     0.06440
H270        H  0.12209835  0.76141871  0.55186239     0.06290
C271        C  0.29938741  0.09314184  0.40104686     0.03330
C272        C  0.30554688  0.11710929  0.37990241    -0.12820
C273        C  0.28104611  0.13480165  0.36795455     0.00830
C274        C  0.25042909  0.12838882  0.37665404    -0.11350
C275        C  0.24394838  0.10477638  0.39771071     0.03320
C276        C  0.26840101  0.08687404  0.40973243    -0.10770
H277        H  0.32931125  0.12289326  0.37391736     0.08910
H278        H  0.23161366  0.14239340  0.36758221     0.06440
H279        H  0.26348469  0.06898117  0.42667178     0.06290
C280        C  0.94152821  0.89445549  0.23342401     0.03330
C281        C  0.91635238  0.87436673  0.22807926    -0.12820
C282        C  0.89965278  0.86184907  0.25322426     0.00830
C283        C  0.90732744  0.87023481  0.28355455    -0.11350
C284        C  0.93080521  0.89173021  0.28912587     0.03320
C285        C  0.94913090  0.90215857  0.26423341    -0.10770
H286        H  0.90859671  0.86984928  0.20467468     0.08910
H287        H  0.89332951  0.86176926  0.30272371     0.06440
H288        H  0.96790753  0.91820553  0.26859303     0.06290
O289        O  0.54872576  0.54472678  0.97277773    -0.88150
C290        C  0.53395225  0.46933197  0.91935239     0.87880
Mg291      Mg  0.58811255  0.54635694  0.00315263     1.58150
O292        O  0.48311727  0.47397249  0.98360246    -0.87880
O293        O  0.49773974  0.54556759  0.97637117    -0.75210
C294        C  0.59169943  0.40709903  0.06939895     0.92930
O295        O  0.59849172  0.49866068  0.94167299    -0.75020
O296        O  0.61013303  0.42989231  0.06575656    -0.82530
Mg297      Mg  0.55894555  0.53068951  0.92585415     1.57960
C298        C  0.46683273  0.39752178  0.03791490     0.92860
O299        O  0.52219822  0.56326849  0.90331061    -0.80790
H300        H  0.45271357  0.49821576  0.00901328    -0.06130
C301        C  0.55779284  0.41978981  0.99089468     0.87800
O302        O  0.55802457  0.53179716  0.04491095    -0.75300
O303        O  0.52681655  0.49386896  0.93225835    -0.88060
O304        O  0.46360152  0.40585360  0.00962758    -0.80870
C305        C  0.45375983  0.43989040  0.91180341     0.92970
C306        C  0.49391447  0.56005865  0.89513670     0.92820
Mg307      Mg  0.52557752  0.44378919  0.04828040     1.57950
O308        O  0.56291845  0.40894211  0.06303944    -0.80800
O309        O  0.48561525  0.47632581  0.03453942    -0.75040
O310        O  0.46238789  0.46806826  0.91273207    -0.80880
O311        O  0.59556759  0.56754141  0.91872988    -0.82590
O312        O  0.62996229  0.50390714  0.06107161    -0.80910
C313        C  0.47271555  0.48308079  0.00886373     0.87260
O314        O  0.55857366  0.48086212  0.04481812    -0.88050
O315        O  0.53370758  0.43166288  0.00103263    -0.88150
O316        O  0.58450293  0.43021556  0.99761786    -0.75210
Mg317      Mg  0.48057118  0.50555251  0.94569142     1.57970
O318        O  0.45619187  0.42236455  0.93544251    -0.82590
H319        H  0.52586643  0.57728096  0.99666107    -0.06310
O320        O  0.59893359  0.49966915  0.99244363    -0.87850
H321        H  0.63032948  0.47598000  0.96778054    -0.06130
H322        H  0.53743859  0.50540275  0.07808646    -0.06310
C323        C  0.61030163  0.49107747  0.96752824     0.87240
C324        C  0.52438078  0.55693054  0.98217750     0.87820
C325        C  0.55114345  0.50578140  0.05703122     0.87870
H326        H  0.55602997  0.40042968  0.97513650    -0.06290
O327        O  0.52578864  0.44327802  0.93028952    -0.75320
Mg328      Mg  0.60431119  0.46777909  0.02933236     1.58000
H329        H  0.54814022  0.47004176  0.89862732    -0.06310
C330        C  0.62027559  0.56872840  0.93470081     0.92860
O331        O  0.62874487  0.54916022  0.03607464    -0.82550
C332        C  0.63942086  0.53175340  0.05732568     0.92920
O333        O  0.47664410  0.53927649  0.90671835    -0.82530
Mg334      Mg  0.49504548  0.42726439  0.97100962     1.58180
O335        O  0.62032764  0.56114229  0.96329973    -0.80870
O336        O  0.49001028  0.40611149  0.05381411    -0.82560
C337        C  0.43719374  0.40345248  0.73041068     0.03330
C338        C  0.44395908  0.41352692  0.76079613    -0.12820
C339        C  0.42605392  0.40319778  0.78613661     0.00830
C340        C  0.40128831  0.38306036  0.78112796    -0.11350
C341        C  0.39406406  0.37303982  0.75126050     0.03320
C342        C  0.41285026  0.38209373  0.72613054    -0.10770
H343        H  0.46288354  0.42955684  0.76469093     0.08910
H344        H  0.38764818  0.37493792  0.80070142     0.06440
H345        H  0.40856207  0.37233828  0.70346889     0.06290
C346        C  0.63763538  0.23011794  0.09211935     0.03330
C347        C  0.66246439  0.22788235  0.11317364    -0.12820
C348        C  0.67273222  0.25434750  0.12923945     0.00830
C349        C  0.65713797  0.28251164  0.12510901    -0.11350
C350        C  0.63264921  0.28500411  0.10419496     0.03320
C351        C  0.62292556  0.25879788  0.08770105    -0.10770
H352        H  0.67377471  0.20579360  0.11688069     0.08910
H353        H  0.66457511  0.30288562  0.13770500     0.06440
H354        H  0.60396415  0.26075925  0.07134318     0.06290
C355        C  0.80032288  0.58756955  0.89281205     0.03330
C356        C  0.77085291  0.57427159  0.89799914    -0.12820
C357        C  0.74407464  0.58823908  0.88631992     0.00830
C358        C  0.74701541  0.61269400  0.86550668    -0.11350
C359        C  0.77529425  0.62847166  0.86220060     0.03320
C360        C  0.80213665  0.61569517  0.87609351    -0.10770
H361        H  0.76854805  0.55401946  0.91264684     0.08910
H362        H  0.72632342  0.62146299  0.85442052     0.06440
H363        H  0.82382100  0.62823141  0.87511795     0.06290
O364        O  0.01398618  0.43431254  0.05382976    -0.88150
C365        C  0.05050793  0.52068861  0.05760350     0.87880
Mg366      Mg  0.99420353  0.41734688  0.01299118     1.58150
O367        O  0.97758677  0.51377536  0.09297501    -0.87880
O368        O  0.99729500  0.44429240  0.10070918    -0.75210
C369        C  0.89867478  0.52710200  0.96238595     0.92930
O370        O  0.04869468  0.47168182  0.00015803    -0.75020
O371        O  0.91280627  0.50316597  0.95241023    -0.82530
Mg372      Mg  0.05941958  0.45333708  0.04951374     1.57960
C373        C  0.90828815  0.57632001  0.08122298     0.92860
O374        O  0.07292371  0.43401283  0.09841580    -0.80790
H375        H  0.95069596  0.49596106  0.12642458    -0.06130
C376        C  0.97650478  0.54833056  0.00571282     0.87800
O377        O  0.94543297  0.43010111  0.03156920    -0.75300
O378        O  0.04090406  0.49591592  0.06856978    -0.88060
O379        O  0.93566780  0.57429976  0.09244588    -0.80870
C380        C  0.02900897  0.56528254  0.13393873     0.92970
C381        C  0.07155413  0.44414437  0.12622715     0.92820
Mg382      Mg  0.92003841  0.52047710  0.03601860     1.57950
O383        O  0.90465097  0.53847582  0.98882511    -0.80800
O384        O  0.92861397  0.50354963  0.08561677    -0.75040
O385        O  0.03690630  0.53731340  0.12964956    -0.80880
O386        O  0.07940201  0.40893697  0.02669701    -0.82590
O387        O  0.93507217  0.43258401  0.96376877    -0.80910
C388        C  0.95235865  0.50439625  0.10286548     0.87260
O389        O  0.93787280  0.47847432  0.01829275    -0.88050
O390        O  0.96510945  0.54065836  0.03106403    -0.88150
O391        O  0.97646101  0.53023088  0.98229519    -0.75210
Mg392      Mg  0.01683913  0.49204358  0.11200225     1.57970
O393        O  0.00706545  0.57756523  0.11835229    -0.82590
H394        H  0.99027833  0.40336149  0.07891041    -0.06310
O395        O  0.99945714  0.46155341  0.99159703    -0.87850
H396        H  0.02662378  0.48186896  0.95980414    -0.06130
H397        H  0.90558391  0.45365400  0.04064884    -0.06310
C398        C  0.02481033  0.47193668  0.98275994     0.87240
C399        C  0.00062588  0.42612761  0.07786738     0.87820
C400        C  0.92851765  0.45421443  0.03037838     0.87870
H401        H  0.98712109  0.57088995  0.00348685    -0.06290
O402        O  0.03365961  0.54496839  0.05661997    -0.75320
Mg403      Mg  0.95697860  0.48098406  0.97293220     1.58000
H404        H  0.07372702  0.52157499  0.04802372    -0.06310
C405        C  0.06845578  0.39442623  0.00335731     0.92860
O406        O  0.97276113  0.39825433  0.97072645    -0.82550
C407        C  0.94515907  0.40484653  0.96342487     0.92920
O408        O  0.05651833  0.46827630  0.13344719    -0.82530
Mg409      Mg  0.98445616  0.55856622  0.07370714     1.58180
O410        O  0.04083832  0.39944617  0.99434308    -0.80870
O411        O  0.90100593  0.56391134  0.05570661    -0.82560
C412        C  0.73510120  0.59071192  0.13250666     0.03330
C413        C  0.72954668  0.61467313  0.15424747    -0.12820
C414        C  0.75456342  0.63016717  0.16856283     0.00830
C415        C  0.78491113  0.62404965  0.15856747    -0.11350
C416        C  0.79089150  0.60082982  0.13710843     0.03320
C417        C  0.76628206  0.58360378  0.12489864    -0.10770
H418        H  0.70616522  0.62174152  0.15974675     0.08910
H419        H  0.80411734  0.63751147  0.16753323     0.06440
H420        H  0.77154357  0.56534666  0.10848891     0.06290
C421        C  0.09184873  0.39464676  0.30041957     0.03330
C422        C  0.11447868  0.37136918  0.30421039    -0.12820
C423        C  0.13087273  0.36003832  0.27834114     0.00830
C424        C  0.12312574  0.37025908  0.24864585    -0.11350
C425        C  0.10082369  0.39326035  0.24453405     0.03320
C426        C  0.08468417  0.40491776  0.27031670    -0.10770
H427        H  0.11993422  0.36269431  0.32709561     0.08910
H428        H  0.13562597  0.36130988  0.22869043     0.06440
H429        H  0.06720249  0.42265674  0.26706545     0.06290
C430        C  0.89373340  0.23466435  0.94022030     0.03330
C431        C  0.89982523  0.26409530  0.95248987    -0.12820
C432        C  0.88247409  0.28995574  0.94305017     0.00830
C433        C  0.85853373  0.28568019  0.92157649    -0.11350
C434        C  0.85501370  0.25741848  0.90586880     0.03320
C435        C  0.87182034  0.23145614  0.91631553    -0.10770
H436        H  0.91880734  0.26689299  0.96864925     0.08910
H437        H  0.84456135  0.30538889  0.91481588     0.06440
H438        H  0.86901790  0.20921848  0.90511526     0.06290
O439        O  0.43862320  0.05543638  0.01577073    -0.88150
C440        C  0.52648259  0.05897255  0.05001816     0.87880
Mg441      Mg  0.41866184  0.01580211  0.99631404     1.58150
O442        O  0.51536453  0.09467792  0.97902958    -0.87880
O443        O  0.44752543  0.10324653  0.00178706    -0.75210
C444        C  0.52677239  0.96040102  0.90190910     0.92930
O445        O  0.47601450  0.00169808  0.04906913    -0.75020
O446        O  0.50207801  0.95132605  0.91541692    -0.82530
Mg447      Mg  0.45870677  0.05097699  0.06063862     1.57960
C448        C  0.56933219  0.08163503  0.90439605     0.92860
O449        O  0.43911426  0.09993518  0.07374856    -0.80790
H450        H  0.49322816  0.12548750  0.95247939    -0.06130
C451        C  0.54813579  0.00653141  0.97656324     0.87800
O452        O  0.43018486  0.03363176  0.94751406    -0.75300
O453        O  0.50121658  0.06988827  0.04149260    -0.88060
O454        O  0.56938320  0.09452102  0.93113397    -0.80870
C455        C  0.57162684  0.13297679  0.02792146     0.92970
C456        C  0.44941757  0.12766991  0.07362086     0.92820
Mg457      Mg  0.51936333  0.03507481  0.92079205     1.57950
O458        O  0.53716569  0.98767754  0.90535849    -0.80800
O459        O  0.50168989  0.08427564  0.93158611    -0.75040
O460        O  0.54353491  0.13016030  0.03656168    -0.80880
O461        O  0.41527663  0.02791208  0.08213943    -0.82590
O462        O  0.43117126  0.96136589  0.93880763    -0.80910
C463        C  0.50326037  0.10263206  0.95441538     0.87260
O464        O  0.47754802  0.01758340  0.93861537    -0.88050
O465        O  0.54014390  0.03160824  0.96504443    -0.88150
O466        O  0.53008690  0.98308825  0.97700372    -0.75210
Mg467      Mg  0.49642979  0.11382786  0.01929538     1.57970
O468        O  0.58180768  0.11884050  0.00389247    -0.82590
H469        H  0.40679458  0.08107542  0.99404058    -0.06310
O470        O  0.46198150  0.99226357  0.00087833    -0.87850
H471        H  0.48345385  0.96073216  0.02720326    -0.06130
H472        H  0.45296595  0.04060859  0.90682857    -0.06310
C473        C  0.47386002  0.98380424  0.02566431     0.87240
C474        C  0.42984623  0.07987891  0.00382816     0.87820
C475        C  0.45361140  0.03064756  0.92982946     0.87870
H476        H  0.57094940  0.00453834  0.98676349    -0.06290
O477        O  0.55015557  0.05787260  0.03209100    -0.75320
Mg478      Mg  0.48032268  0.97288671  0.95879141     1.58000
H479        H  0.52837491  0.04967572  0.07322005    -0.06310
C480        C  0.39996236  0.00504067  0.07139336     0.92860
O481        O  0.39662308  0.97519990  0.97458546    -0.82550
C482        C  0.40328273  0.96251375  0.94891782     0.92920
O483        O  0.47519439  0.13465027  0.06116307    -0.82530
Mg484      Mg  0.56010018  0.07480350  0.98193796     1.58180
O485        O  0.40171789  0.99776992  0.04293545    -0.80870
O486        O  0.56334162  0.05328490  0.90162677    -0.82560
C487        C  0.58451009  0.14085762  0.73141955     0.03330
C488        C  0.60344657  0.16694087  0.72727756    -0.12820
C489        C  0.61586069  0.18198964  0.75325004     0.00830
C490        C  0.60837931  0.17177245  0.78312657    -0.11350
C491        C  0.59306600  0.14365117  0.78749196     0.03320
C492        C  0.58132630  0.12823558  0.76119229    -0.10770
H493        H  0.60937037  0.17477188  0.70412315     0.08910
H494        H  0.61665755  0.18474399  0.80277082     0.06440
H495        H  0.56970236  0.10613731  0.76369624     0.06290
C496        C  0.39245181  0.30041943  0.09236731     0.03330
C497        C  0.37064348  0.30222395  0.11688449    -0.12820
C498        C  0.35612346  0.27517935  0.12842790     0.00830
C499        C  0.36499054  0.24667716  0.11526294    -0.11350
C500        C  0.39087509  0.24438381  0.09605096     0.03320
C501        C  0.40358286  0.27124004  0.08328909    -0.10770
H502        H  0.36549063  0.32452418  0.12667834     0.08910
H503        H  0.35351005  0.22541253  0.12193958     0.06440
H504        H  0.42234580  0.26947444  0.06658860     0.06290
C505        C  0.23054176  0.94670725  0.89076439     0.03330
C506        C  0.22817717  0.91995813  0.87214637    -0.12820
C507        C  0.25512984  0.90611034  0.85954759     0.00830
C508        C  0.28391163  0.92029655  0.86510343    -0.11350
C509        C  0.28675277  0.94304585  0.88780210     0.03320
C510        C  0.26002818  0.95767919  0.89893910    -0.10770
H511        H  0.20562967  0.90946203  0.86873961     0.08910
H512        H  0.30479441  0.91102844  0.85470723     0.06440
H513        H  0.26215115  0.97616411  0.91571552     0.06290
O514        O  0.56032142  0.51780575  0.59381023    -0.88150
C515        C  0.55906952  0.48424060  0.50622276     0.87880
Mg516      Mg  0.52084376  0.53825153  0.61409317     1.58150
O517        O  0.59480101  0.55635200  0.51485705    -0.87880
O518        O  0.60751224  0.53275950  0.58282272    -0.75210
C519        C  0.46127204  0.63493087  0.50834334     0.92930
O520        O  0.50425699  0.48561317  0.55885198    -0.75020
O521        O  0.45315872  0.62054023  0.53290032    -0.82530
Mg522      Mg  0.55442330  0.47324990  0.57366217     1.57960
C523        C  0.58096847  0.62788276  0.45562342     0.92860
O524        O  0.60442367  0.45777272  0.58900220    -0.80790
H525        H  0.62827759  0.58279494  0.53291785    -0.06130
C526        C  0.50568454  0.55939893  0.48445051     0.87800
O527        O  0.53903566  0.58636804  0.60056389    -0.75300
O528        O  0.57168895  0.49251701  0.53067561    -0.88060
O529        O  0.59174574  0.60039445  0.45686984    -0.80870
C530        C  0.63202785  0.50716679  0.45781566     0.92970
C531        C  0.63176723  0.45843795  0.57720080     0.92820
Mg532      Mg  0.53686880  0.61533734  0.51183055     1.57950
O533        O  0.48828798  0.63177732  0.49665389    -0.80800
O534        O  0.58722054  0.60500789  0.52652226    -0.75040
O535        O  0.63065962  0.49814202  0.48581382    -0.80880
O536        O  0.53336458  0.45254919  0.61872008    -0.82590
O537        O  0.46734650  0.59693826  0.60318883    -0.80910
C538        C  0.60457867  0.58128694  0.52486757     0.87260
O539        O  0.52083338  0.59693351  0.55429351    -0.88050
O540        O  0.53123048  0.57067661  0.49132386    -0.88150
O541        O  0.48311353  0.55862415  0.50369337    -0.75210
Mg542      Mg  0.61563834  0.51587532  0.53324211     1.57970
O543        O  0.61623184  0.53008917  0.44806091    -0.82590
H544        H  0.58761317  0.53811196  0.62518000    -0.06310
O545        O  0.49614728  0.53430968  0.57139558    -0.87850
H546        H  0.46329644  0.50796338  0.55206838    -0.06130
H547        H  0.54619931  0.62718922  0.57840903    -0.06310
C548        C  0.48680731  0.50940462  0.56066200     0.87240
C549        C  0.58523267  0.52940744  0.60180953     0.87820
C550        C  0.53541889  0.60461786  0.57772270     0.87870
H551        H  0.50259909  0.54950851  0.46164687    -0.06290
O552        O  0.55639831  0.50226240  0.48292862    -0.75320
Mg553      Mg  0.47583262  0.57677780  0.55377987     1.58000
H554        H  0.54940492  0.46120250  0.50484733    -0.06310
C555        C  0.51095260  0.46360499  0.63474399     0.92860
O556        O  0.48066920  0.56077756  0.63743945    -0.82550
C557        C  0.46943799  0.58706466  0.63099996     0.92920
O558        O  0.63832716  0.47461076  0.55357126    -0.82530
Mg559      Mg  0.57303612  0.55175591  0.47079650     1.58180
O560        O  0.50268757  0.49180204  0.63224423    -0.80870
O561        O  0.55516480  0.63515882  0.46778450    -0.82560
C562        C  0.64030958  0.79677781  0.44257581     0.03330
C563        C  0.65732713  0.80245776  0.41491017    -0.12820
C564        C  0.66964011  0.77782531  0.39737914     0.00830
C565        C  0.66194469  0.74743754  0.40510853    -0.11350
C566        C  0.64408523  0.74121432  0.43120885     0.03320
C567        C  0.63498404  0.76543604  0.45076535    -0.10770
H568        H  0.66128622  0.82568395  0.40685466     0.08910
H569        H  0.66962201  0.72849697  0.39046179     0.06440
H570        H  0.62271705  0.75928546  0.47177520     0.06290
C571        C  0.43898476  0.63742184  0.80042396     0.03330
C572        C  0.41505373  0.65861867  0.80642673    -0.12820
C573        C  0.39991984  0.67329749  0.78171084     0.00830
C574        C  0.40955594  0.66772387  0.75112913    -0.11350
C575        C  0.43137676  0.64470418  0.74460739     0.03320
C576        C  0.44625220  0.62993445  0.76957053    -0.10770
H577        H  0.40761467  0.66295280  0.83002264     0.08910
H578        H  0.39933508  0.68093413  0.73256503     0.06440
H579        H  0.46327087  0.61197684  0.76505542     0.06290
C580        C  0.80232455  0.43242347  0.63401505     0.03330
C581        C  0.80572116  0.40984173  0.65740810    -0.12820
C582        C  0.78011046  0.39192891  0.66671608     0.00830
C583        C  0.75075129  0.39795459  0.65436170    -0.11350
C584        C  0.74654406  0.42171680  0.63294701     0.03320
C585        C  0.77240636  0.43840800  0.62223224    -0.10770
H586        H  0.82798661  0.40602966  0.66822727     0.08910
H587        H  0.73105249  0.38400428  0.66149930     0.06440
H588        H  0.76923593  0.45584650  0.60443826     0.06290
O589        O  0.47928572  0.98047832  0.48484243    -0.88150
C590        C  0.42175127  0.98828381  0.55939476     0.87880
Mg591      Mg  0.51270177  0.94317674  0.48369179     1.58150
O592        O  0.48244727  0.04315311  0.55923264    -0.87880
O593        O  0.47899851  0.03139483  0.48674960    -0.75210
C594        C  0.57027376  0.93875198  0.62693125     0.92930
O595        O  0.44861678  0.92644123  0.52665799    -0.75020
O596        O  0.56783633  0.92001447  0.60426679    -0.82530
Mg597      Mg  0.43226250  0.96671599  0.49603397     1.57960
C598        C  0.53342414  0.06069883  0.63712637     0.92860
O599        O  0.40827151  0.00426868  0.46422546    -0.80790
H600        H  0.50660154  0.07558953  0.53647182    -0.06130
C601        C  0.49047905  0.96831234  0.61074509     0.87800
O602        O  0.55136168  0.97464777  0.50188868    -0.75300
O603        O  0.43496603  0.99701194  0.53538872    -0.88060
O604        O  0.50507848  0.06284233  0.62846025    -0.80870
C605        C  0.40725439  0.06543837  0.59289498     0.92970
C606        C  0.39824715  0.03172940  0.46905786     0.92820
Mg607      Mg  0.54790155  0.00381318  0.59024460     1.57950
O608        O  0.56306379  0.96712961  0.62458829    -0.80800
O609        O  0.53350519  0.04365232  0.55810020    -0.75040
O610        O  0.41028429  0.05749419  0.56464807    -0.80880
O611        O  0.43033819  0.93125918  0.45679786    -0.82590
O612        O  0.56869820  0.90249100  0.52992109    -0.80910
C613        C  0.50727226  0.05524981  0.55107171     0.87260
O614        O  0.54776457  0.97186028  0.55267694    -0.88050
O615        O  0.50077079  0.99307178  0.60070411    -0.88150
O616        O  0.49859711  0.94239446  0.59960160    -0.75210
Mg617      Mg  0.44562786  0.04436027  0.52671042     1.57970
O618        O  0.43078431  0.06578419  0.61070250    -0.82590
H619        H  0.50275823  0.00659503  0.45443964    -0.06310
O620        O  0.49919488  0.92981602  0.52932995    -0.87850
H621        H  0.47558073  0.89522438  0.54918054    -0.06130
H622        H  0.58170577  0.99521393  0.53125180    -0.06310
C623        C  0.47475290  0.91609907  0.53537075     0.87240
C624        C  0.48736600  0.00595729  0.47429348     0.87820
C625        C  0.56139371  0.98072105  0.52891713     0.87870
H626        H  0.47320230  0.96880493  0.62899574    -0.06290
O627        O  0.43075921  0.99684974  0.58614032    -0.75320
Mg628      Mg  0.53372753  0.92536014  0.56393597     1.58000
H629        H  0.40225441  0.97264534  0.55762046    -0.06310
C630        C  0.44875444  0.90818839  0.45424082     0.92860
O631        O  0.54855703  0.90463399  0.48220697    -0.82550
C632        C  0.56829951  0.89419926  0.50150600     0.92920
O633        O  0.40778611  0.04757438  0.49189635    -0.82530
Mg634      Mg  0.46879466  0.02960158  0.60523432     1.58180
O635        O  0.47652475  0.90968415  0.46407005    -0.80870
O636        O  0.55026861  0.03822266  0.62863625    -0.82560
C637        C  0.39491625  0.73232387  0.44392785     0.03330
C638        C  0.37133739  0.72787742  0.42157869    -0.12820
C639        C  0.36250602  0.75226488  0.40185229     0.00830
C640        C  0.37645335  0.78120184  0.40485095    -0.11350
C641        C  0.39827621  0.78676046  0.42791145     0.03320
C642        C  0.40861554  0.76195694  0.44637898    -0.10770
H643        H  0.36027643  0.70551299  0.41915118     0.08910
H644        H  0.37033866  0.79951113  0.38882209     0.06440
H645        H  0.42712068  0.76588527  0.46281971     0.06370
C646        C  0.22880216  0.08720307  0.63241223     0.03330
C647        C  0.25726660  0.07159111  0.63059952    -0.12820
C648        C  0.28354116  0.08319605  0.64559837     0.00830
C649        C  0.27977913  0.10788042  0.66612549    -0.11350
C650        C  0.25179669  0.12517587  0.66782150     0.03320
C651        C  0.22647253  0.11464385  0.64989881    -0.10770
H652        H  0.25955906  0.05174187  0.61539555     0.08910
H653        H  0.29989945  0.11472750  0.67924675     0.06440
H654        H  0.20537323  0.12778136  0.64824326     0.06290
C655        C  0.59471293  0.89790712  0.80518524     0.03330
C656        C  0.61704602  0.87439683  0.80897318    -0.12820
C657        C  0.63341622  0.86317505  0.78312798     0.00830
C658        C  0.62661976  0.87435820  0.75353328    -0.11350
C659        C  0.60674048  0.89954441  0.74961788     0.03320
C660        C  0.59147064  0.91175938  0.77582900    -0.10770
H661        H  0.62176235  0.86500262  0.83176578     0.08910
H662        H  0.63778381  0.86389436  0.73360451     0.06440
H663        H  0.57616448  0.93146986  0.77321858     0.06290
C664        C  0.29711729  0.28116578  0.75793773     0.03330
C665        C  0.27844642  0.28622514  0.78432325    -0.12820
C666        C  0.25435265  0.26583652  0.79223217     0.00830
C667        C  0.25030054  0.23869861  0.77480198    -0.11350
C668        C  0.26802316  0.23327289  0.74785653     0.03320
C669        C  0.29054938  0.25544412  0.73897789    -0.10770
H670        H  0.28246926  0.30637409  0.79871347     0.08910
H671        H  0.23343640  0.22172213  0.78241192     0.06440
H672        H  0.30273857  0.25261308  0.71723469     0.06290
C673        C  0.28086476  0.16991982  0.68898175    -0.05580
C674        C  0.25186748  0.15513606  0.68621130     0.00350
C675        C  0.22673342  0.16746018  0.70433598    -0.08230
C676        C  0.23235840  0.19398317  0.72299289    -0.05600
C677        C  0.26269902  0.20489812  0.72851706     0.00330
C678        C  0.28735178  0.18894751  0.71408098    -0.08130
C679        C  0.31947799  0.18556845  0.72768049     0.62240
H680        H  0.30030560  0.16318737  0.67452364     0.12940
H681        H  0.21308257  0.20572556  0.73404785     0.12950
C682        C  0.19431142  0.15367504  0.70492813     0.62480
F683        F  0.32507403  0.15453140  0.73340975    -0.22690
F684        F  0.32255075  0.20083175  0.75553287    -0.20020
F685        F  0.34139985  0.19584386  0.70666476    -0.19700
F686        F  0.19571126  0.12179684  0.70732801    -0.19750
F687        F  0.17845274  0.16219296  0.67844813    -0.20070
F688        F  0.17737859  0.16428241  0.73014539    -0.22740
C689        C  0.61116518  0.92261172  0.66380908    -0.05580
C690        C  0.57965876  0.92746695  0.65771171     0.00350
C691        C  0.55757545  0.92435379  0.68193746    -0.08230
C692        C  0.56768143  0.91498196  0.71122589    -0.05600
C693        C  0.59923297  0.91089901  0.71792956     0.00330
C694        C  0.62165338  0.91577583  0.69396238    -0.08130
C695        C  0.65655849  0.91514014  0.69901955     0.62240
H696        H  0.62781150  0.92577827  0.64514800     0.12940
H697        H  0.55072843  0.91069598  0.72929830     0.12950
C698        C  0.52338317  0.93114064  0.67710722     0.62480
F699        F  0.67067956  0.93819515  0.68169286    -0.22690
F700        F  0.66826390  0.88687857  0.68949417    -0.20020
F701        F  0.66442128  0.92021695  0.72964506    -0.19700
F702        F  0.51213730  0.91296707  0.65333348    -0.19750
F703        F  0.51968609  0.96208312  0.66996020    -0.20070
F704        F  0.50577109  0.92509003  0.70335601    -0.22740
C705        C  0.37142704  0.07014976  0.63840642    -0.05580
C706        C  0.37541481  0.07137115  0.60592319     0.00350
C707        C  0.34846842  0.07467164  0.58711208    -0.08230
C708        C  0.31932327  0.07742069  0.60148693    -0.05600
C709        C  0.31526465  0.07546736  0.63369644     0.00330
C710        C  0.34183136  0.07089692  0.65256545    -0.08130
C711        C  0.34039908  0.06558542  0.68734506     0.62240
H712        H  0.39158085  0.06692357  0.65304599     0.12940
H713        H  0.29907282  0.08156546  0.58735062     0.12950
C714        C  0.34960445  0.07504378  0.55194492     0.62480
F715        F  0.35854775  0.04029168  0.69503035    -0.22690
F716        F  0.31064599  0.05960208  0.69789134    -0.20020
F717        F  0.35187925  0.09136090  0.70244128    -0.19700
F718        F  0.35796291  0.04603412  0.54120793    -0.19750
F719        F  0.37059409  0.09710438  0.54179622    -0.20070
F720        F  0.32107826  0.08213817  0.53910686    -0.22740
C721        C  0.40437238  0.87294568  0.44548407    -0.05580
C722        C  0.43655973  0.87789596  0.44282252     0.00350
C723        C  0.45585875  0.85282961  0.43307847    -0.08230
C724        C  0.44226034  0.82361250  0.42815802    -0.05600
C725        C  0.41039227  0.81861005  0.43226468     0.00330
C726        C  0.39086745  0.84375743  0.44065788    -0.08130
C727        C  0.35605242  0.83990925  0.44581006     0.62240
H728        H  0.38970757  0.89201808  0.45261471     0.12940
H729        H  0.45656650  0.80408854  0.42144975     0.12950
C730        C  0.49061551  0.85627796  0.42787639     0.62480
F731        F  0.34318956  0.86534135  0.46056341    -0.22690
F732        F  0.35023450  0.81425932  0.46412919    -0.20020
F733        F  0.34115246  0.83657314  0.41769133    -0.19700
F734        F  0.50549300  0.85913937  0.45598631    -0.19750
F735        F  0.49657145  0.88206152  0.40980049    -0.20070
F736        F  0.50319606  0.83083893  0.41288172    -0.22740
C737        C  0.59739104  0.81581193  0.47749643    -0.05580
C738        C  0.62530217  0.82255780  0.46133231     0.00350
C739        C  0.63659984  0.85370518  0.46300377    -0.08230
C740        C  0.61697606  0.87694507  0.47525425    -0.05600
C741        C  0.58946971  0.86949656  0.49092148     0.00330
C742        C  0.58110891  0.83824090  0.49453639    -0.08130
C743        C  0.55572060  0.82861354  0.51718045     0.62240
H744        H  0.58753893  0.79292095  0.47671721     0.12940
H745        H  0.62390668  0.90102888  0.47393008     0.12950
C746        C  0.66936996  0.86360152  0.45445048     0.62480
F747        F  0.55169226  0.79683873  0.51786314    -0.22690
F748        F  0.52773552  0.84207346  0.50939783    -0.20020
F749        F  0.56383429  0.83808865  0.54670091    -0.19700
F750        F  0.66936193  0.87746774  0.42552352    -0.19750
F751        F  0.68997304  0.83905672  0.45480200    -0.20070
F752        F  0.68013791  0.88494241  0.47579913    -0.22740
C753        C  0.42837732  0.61228481  0.66194895    -0.05580
C754        C  0.45997641  0.60668422  0.65717715     0.00350
C755        C  0.48199341  0.61714555  0.67913322    -0.08230
C756        C  0.47130486  0.63230059  0.70575753    -0.05600
C757        C  0.43952751  0.63556280  0.71223497     0.00330
C758        C  0.41741397  0.62611792  0.68948366    -0.08130
C759        C  0.38249867  0.62902786  0.69406601     0.62240
H760        H  0.41224838  0.60428612  0.64448590     0.12940
H761        H  0.48784264  0.64039134  0.72278847     0.12950
C762        C  0.51672183  0.61230544  0.67470166     0.62480
F763        F  0.36618764  0.61231395  0.67211061    -0.22690
F764        F  0.37360794  0.65960585  0.69116714    -0.20020
F765        F  0.37396413  0.61785950  0.72286734    -0.19700
F766        F  0.52600817  0.62597924  0.64726124    -0.19750
F767        F  0.52367467  0.58107877  0.67399270    -0.20070
F768        F  0.53384012  0.62535951  0.69845417    -0.22740
C769        C  0.43134516  0.68413110  0.50932652    -0.05580
C770        C  0.43967613  0.65716605  0.49327769     0.00350
C771        C  0.42926330  0.65312991  0.46244789    -0.08230
C772        C  0.41362797  0.67770395  0.44759796    -0.05600
C773        C  0.40683861  0.70568281  0.46297826     0.00330
C774        C  0.41400509  0.70796358  0.49516839    -0.08130
C775        C  0.40375036  0.73460640  0.51575190     0.62240
H776        H  0.43868644  0.68671715  0.53321661     0.12940
H777        H  0.40769305  0.67556553  0.42332155     0.12950
C778        C  0.43427413  0.62273172  0.44554514     0.62480
F779        F  0.39307414  0.72320385  0.54384023    -0.22690
F780        F  0.37982784  0.75162766  0.50291415    -0.20020
F781        F  0.42878442  0.75382726  0.52132249    -0.19700
F782        F  0.42278823  0.59867696  0.46340830    -0.19750
F783        F  0.46558134  0.61801185  0.44017931    -0.20070
F784        F  0.41913010  0.62219657  0.41727608    -0.22740
C785        C  0.62766771  0.65986295  0.46004762    -0.05580
C786        C  0.60026037  0.65329858  0.44375522     0.00350
C787        C  0.58913690  0.67435088  0.42127044    -0.08230
C788        C  0.60492804  0.70246351  0.41720703    -0.05600
C789        C  0.63089270  0.71001851  0.43522575     0.00330
C790        C  0.64318317  0.68824297  0.45628370    -0.08130
C791        C  0.67207063  0.69536064  0.47497066     0.62240
H792        H  0.63564190  0.64344667  0.47728505     0.12940
H793        H  0.59642000  0.71937639  0.40072221     0.12950
C794        C  0.56072818  0.66714713  0.40181452     0.62480
F795        F  0.68084580  0.67056794  0.49331964    -0.22690
F796        F  0.66661123  0.72044387  0.49411256    -0.20020
F797        F  0.69639901  0.70222781  0.45510052    -0.19700
F798        F  0.53431336  0.66747961  0.42012216    -0.19750
F799        F  0.56400431  0.63823187  0.38845591    -0.20070
F800        F  0.55675955  0.68854053  0.37823501    -0.22740
C801        C  0.66327637  0.44968352  0.62388858    -0.05580
C802        C  0.65802864  0.44277462  0.59256168     0.00350
C803        C  0.68091677  0.42635343  0.57541334    -0.08230
C804        C  0.70922209  0.41915081  0.58982198    -0.05600
C805        C  0.71521969  0.42790828  0.62046636     0.00330
C806        C  0.69180074  0.44280345  0.63818586    -0.08130
C807        C  0.69752253  0.45287618  0.67143446     0.62240
H808        H  0.64560660  0.46241241  0.63648542     0.12940
H809        H  0.72739266  0.40746655  0.57690243     0.12950
C810        C  0.67585843  0.41687233  0.54187898     0.62480
F811        F  0.67271692  0.46947827  0.68340205    -0.22690
F812        F  0.72360732  0.47149669  0.67269358    -0.20020
F813        F  0.70196600  0.42724303  0.69007428    -0.19700
F814        F  0.67890982  0.44227655  0.52260396    -0.19750
F815        F  0.64651275  0.40433762  0.53846360    -0.20070
F816        F  0.69726643  0.39483334  0.53248116    -0.22740
C817        C  0.52712782  0.10194687  0.67706143    -0.05580
C818        C  0.54725483  0.08430507  0.65833844     0.00350
C819        C  0.58002261  0.08898307  0.66114799    -0.08230
C820        C  0.59109397  0.10864884  0.68461651    -0.05600
C821        C  0.57091613  0.12424205  0.70465242     0.00330
C822        C  0.53844031  0.12209526  0.70006957    -0.08130
C823        C  0.51589464  0.14128901  0.71920727     0.62240
H824        H  0.50231374  0.09907426  0.67433789     0.12940
H825        H  0.61583767  0.11115146  0.68833259     0.12950
C826        C  0.60370493  0.07361585  0.63983822     0.62480
F827        F  0.48580471  0.13896275  0.70823808    -0.22690
F828        F  0.52449007  0.17210862  0.71802442    -0.20020
F829        F  0.51600683  0.13144217  0.74968722    -0.19700
F830        F  0.59489433  0.07718182  0.60920991    -0.19750
F831        F  0.60620011  0.04249847  0.64694737    -0.20070
F832        F  0.63293517  0.08659944  0.64290922    -0.22740
C833        C  0.34303995  0.95482648  0.88547172    -0.05580
C834        C  0.31708386  0.94665283  0.90349737     0.00350
C835        C  0.32127685  0.93802144  0.93502292    -0.08230
C836        C  0.35108245  0.94018348  0.94773850    -0.05600
C837        C  0.37657649  0.95113132  0.93058191     0.00330
C838        C  0.37290643  0.95737071  0.89847309    -0.08130
C839        C  0.39981181  0.96785508  0.87822919     0.62240
H840        H  0.33947345  0.95993277  0.86114756     0.12940
H841        H  0.35434665  0.93519772  0.97213672     0.12950
C842        C  0.29468366  0.92754089  0.95599693     0.62480
F843        F  0.39107900  0.97165360  0.84758424    -0.22690
F844        F  0.42328709  0.94601201  0.87906385    -0.20020
F845        F  0.41093280  0.99588412  0.88875140    -0.19700
F846        F  0.27633706  0.90590900  0.94127817    -0.19750
F847        F  0.27667707  0.95270238  0.96426483    -0.20070
F848        F  0.30550736  0.91406429  0.98303945    -0.22740
C849        C  0.52756573  0.92988031  0.85357719    -0.05580
C850        C  0.54332027  0.93977294  0.88010276     0.00350
C851        C  0.57505084  0.93208751  0.88388375    -0.08230
C852        C  0.59080524  0.91724222  0.85938670    -0.05600
C853        C  0.57553755  0.90902432  0.83183365     0.00330
C854        C  0.54283273  0.91361003  0.82976060    -0.08130
C855        C  0.52306919  0.90215907  0.80299211     0.62240
H856        H  0.50311129  0.93540841  0.85121156     0.12940
H857        H  0.61554099  0.91311628  0.86114183     0.12950
C858        C  0.59202494  0.93922441  0.91382792     0.62480
F859        F  0.49506892  0.89092883  0.81414931    -0.22690
F860        F  0.53712759  0.87834232  0.78678393    -0.20020
F861        F  0.51703850  0.92646241  0.78300979    -0.19700
F862        F  0.57534490  0.92751630  0.93868614    -0.19750
F863        F  0.59532665  0.97082926  0.91732957    -0.20070
F864        F  0.62133073  0.92602129  0.91432256    -0.22740
C865        C  0.60303137  0.11468075  0.87145562    -0.05580
C866        C  0.57462769  0.09941888  0.87553601     0.00350
C867        C  0.55274133  0.09919766  0.85079525    -0.08230
C868        C  0.55911140  0.11681181  0.82441039    -0.05600
C869        C  0.58815341  0.13027232  0.81908356     0.00330
C870        C  0.61114434  0.12850847  0.84286556    -0.08130
C871        C  0.64454520  0.13921575  0.83858426     0.62240
H872        H  0.61968258  0.11402062  0.89023325     0.12940
H873        H  0.54142996  0.11929361  0.80683385     0.12950
C874        C  0.52256539  0.08075231  0.85126529     0.62480
F875        F  0.66429717  0.12351732  0.85841581    -0.22690
F876        F  0.64683514  0.17041272  0.84521990    -0.20020
F877        F  0.65490013  0.13361026  0.80871370    -0.19700
F878        F  0.50367535  0.09136219  0.87466174    -0.19750
F879        F  0.52849294  0.04957697  0.85517790    -0.20070
F880        F  0.50610581  0.08364448  0.82386431    -0.22740
C881        C  0.44777372  0.17743030  0.10081067    -0.05580
C882        C  0.43106073  0.15388066  0.08592331     0.00350
C883        C  0.39990165  0.15946334  0.07688840    -0.08230
C884        C  0.38794063  0.18960540  0.07985335    -0.05600
C885        C  0.40573775  0.21375260  0.09224714     0.00330
C886        C  0.43547004  0.20723886  0.10470590    -0.08130
C887        C  0.45411446  0.23130255  0.12239763     0.62240
H888        H  0.47134838  0.17261991  0.10809900     0.12940
H889        H  0.36462876  0.19479000  0.07203935     0.12950
C890        C  0.37973047  0.13436567  0.06295862     0.62480
F891        F  0.47988209  0.21838957  0.13654669    -0.22690
F892        F  0.43588697  0.24449194  0.14533935    -0.20020
F893        F  0.46444577  0.25410087  0.10241303    -0.19700
F894        F  0.37816535  0.10936833  0.08295040    -0.19750
F895        F  0.39210068  0.12510977  0.03493873    -0.20070
F896        F  0.34969473  0.14452420  0.05770375    -0.22740
C897        C  0.91912442  0.35886417  0.98380775    -0.05580
C898        C  0.92406823  0.37876857  0.95852088     0.00350
C899        C  0.91170477  0.37151371  0.92937573    -0.08230
C900        C  0.89675975  0.34291532  0.92588495    -0.05600
C901        C  0.89287072  0.32196341  0.95075134     0.00330
C902        C  0.90257484  0.33108616  0.98076846    -0.08130
C903        C  0.89614519  0.31280183  0.01016120     0.62240
H904        H  0.92838349  0.36515834  0.00630913     0.12940
H905        H  0.88962377  0.33614413  0.90311058     0.12950
C906        C  0.91572448  0.39318557  0.90195449     0.62480
F907        F  0.88519305  0.33255421  0.03297003    -0.22690
F908        F  0.92341870  0.29935674  0.02038404    -0.20020
F909        F  0.87398670  0.29006096  0.00604229    -0.19700
F910        F  0.94699493  0.39773009  0.89607412    -0.19750
F911        F  0.90195687  0.42134867  0.90858382    -0.20070
F912        F  0.90216773  0.38155400  0.87533894    -0.22740
C913        C  0.83233587  0.61475784  0.10051448    -0.05580
C914        C  0.82290565  0.59644520  0.12572151     0.00350
C915        C  0.84428343  0.57572695  0.13960441    -0.08230
C916        C  0.87397395  0.57274858  0.12633054    -0.05600
C917        C  0.88247096  0.58915330  0.09954932     0.00330
C918        C  0.86190966  0.61141721  0.08703403    -0.08130
C919        C  0.87138970  0.63176762  0.05987126     0.62240
H920        H  0.81592895  0.63117915  0.09093573     0.12940
H921        H  0.88986016  0.55561122  0.13561705     0.12950
C922        C  0.83709510  0.55556549  0.16758245     0.62480
F923        F  0.84961455  0.65463914  0.05412526    -0.22690
F924        F  0.87461912  0.61432597  0.03323874    -0.20020
F925        F  0.89938910  0.64596874  0.06638340    -0.19700
F926        F  0.80701084  0.55861849  0.17833482    -0.19750
F927        F  0.85705572  0.56326696  0.19141958    -0.20070
F928        F  0.84174665  0.52484348  0.15984080    -0.22740
C929        C  0.10156626  0.44586586  0.17415015    -0.05580
C930        C  0.08585863  0.42754556  0.15239698     0.00350
C931        C  0.07716922  0.39693673  0.16031141    -0.08230
C932        C  0.08287841  0.38644232  0.19065698    -0.05600
C933        C  0.09601792  0.40588543  0.21311241     0.00330
C934        C  0.10646411  0.43578469  0.20465759    -0.08130
C935        C  0.12210975  0.45728792  0.22771418     0.62240
H936        H  0.10808747  0.46915758  0.16753376     0.12940
H937        H  0.07606370  0.36329705  0.19751990     0.12950
C938        C  0.06041013  0.37615062  0.13751181     0.62480
F939        F  0.13353077  0.48369179  0.21349591    -0.22690
F940        F  0.14672297  0.44237752  0.24174511    -0.20020
F941        F  0.10104981  0.46643233  0.25015164    -0.19700
F942        F  0.07842172  0.37231514  0.11117657    -0.19750
F943        F  0.03229672  0.38929625  0.12948409    -0.20070
F944        F  0.05451836  0.34715624  0.14987640    -0.22740
C945        C  0.82380801  0.56829298  0.94117139    -0.05580
C946        C  0.82759012  0.57393015  0.90935357     0.00350
C947        C  0.85489942  0.56297129  0.89429024    -0.08230
C948        C  0.87782004  0.54765927  0.91216654    -0.05600
C949        C  0.87359317  0.54201491  0.94402480     0.00330
C950        C  0.84531436  0.55114613  0.95837087    -0.08130
C951        C  0.83658348  0.54123317  0.99115621     0.62240
H952        H  0.80310171  0.57683014  0.95250334     0.12940
H953        H  0.89927474  0.54007199  0.90141848     0.12950
C954        C  0.85958341  0.56654661  0.85956447     0.62480
F955        F  0.80524226  0.54554755  0.99710893    -0.22690
F956        F  0.85299577  0.55832687  0.01252774    -0.20020
F957        F  0.84296053  0.51010570  0.99524545    -0.19700
F958        F  0.86419264  0.59731578  0.85222489    -0.19750
F959        F  0.83381455  0.55564379  0.84393877    -0.20070
F960        F  0.88520283  0.55011706  0.84919293    -0.22740
C961        C  0.60447952  0.18361572  0.09278485    -0.05580
C962        C  0.62515389  0.20233791  0.07621811     0.00350
C963        C  0.63124815  0.19584102  0.04461130    -0.08230
C964        C  0.61453676  0.17188138  0.02991787    -0.05600
C965        C  0.59194041  0.15450311  0.04590750     0.00330
C966        C  0.58785884  0.15958945  0.07838855    -0.08130
C967        C  0.56591962  0.14024191  0.09818567     0.62240
H968        H  0.60043901  0.18889712  0.11702946     0.12940
H969        H  0.61802228  0.16754018  0.00542542     0.12950
C970        C  0.65520337  0.21436615  0.02663566     0.62480
F971        F  0.57152373  0.14419384  0.12954180    -0.22690
F972        F  0.56975599  0.10915239  0.09156379    -0.20020
F973        F  0.53552276  0.14888332  0.09261599    -0.19700
F974        F  0.68349201  0.21281284  0.04166991    -0.19750
F975        F  0.64599603  0.24494911  0.02463681    -0.20070
F976        F  0.65921796  0.20316494  0.99681848    -0.22740
C977        C  0.37668354  0.31945490  0.74539311    -0.05580
C978        C  0.36853638  0.35056966  0.74747086     0.00350
C979        C  0.33688449  0.35904879  0.74981299    -0.08230
C980        C  0.31423598  0.33557201  0.75040981    -0.05600
C981        C  0.32232815  0.30400117  0.75042738     0.00330
C982        C  0.35434965  0.29588552  0.74762914    -0.08130
C983        C  0.36563487  0.26283115  0.74805259     0.62240
H984        H  0.40114299  0.31380402  0.74358958     0.12940
H985        H  0.28994090  0.34171200  0.75265579     0.12950
C986        C  0.32721679  0.39263768  0.75305912     0.62480
F987        F  0.39764727  0.26073087  0.75034907    -0.22690
F988        F  0.35724419  0.24894008  0.72067909    -0.20020
F989        F  0.35303917  0.24744233  0.77317558    -0.19700
F990        F  0.34061481  0.41009089  0.72969254    -0.19750
F991        F  0.33674973  0.40378821  0.78147793    -0.20070
F992        F  0.29531573  0.39619769  0.75131327    -0.22740
C993        C  0.48799825  0.41257169  0.70376670    -0.05580
C994        C  0.45543764  0.41578522  0.70347172     0.00350
C995        C  0.44142859  0.43308282  0.67918495    -0.08230
C996        C  0.46060672  0.44661140  0.65637470    -0.05600
C997        C  0.49311392  0.44404182  0.65704777     0.00330
C998        C  0.50717530  0.42658454  0.68105310    -0.08130
C999        C  0.54223693  0.42418589  0.68364281     0.62240
H1000       H  0.49836833  0.39955575  0.72254424     0.12940
H1001       H  0.45028598  0.46012768  0.63791764     0.12950
C1002       C  0.40656844  0.43878334  0.67784748     0.62480
F1003       F  0.55117060  0.40815129  0.70995674    -0.22690
F1004       F  0.55505012  0.45350014  0.68509146    -0.20020
F1005       F  0.55407326  0.40879372  0.65810860    -0.19700
F1006       F  0.39575939  0.44885885  0.70635007    -0.19750
F1007       F  0.39135965  0.41190578  0.66962726    -0.20070
F1008       F  0.39902059  0.46113845  0.65611969    -0.22740
C1009       C  0.71405037  0.57056775  0.08285993    -0.05580
C1010       C  0.70939439  0.57479788  0.11495477     0.00350
C1011       C  0.68177750  0.56241003  0.12862281    -0.08230
C1012       C  0.65943737  0.54817859  0.10922062    -0.05600
C1013       C  0.66443237  0.54449576  0.07725889     0.00330
C1014       C  0.69282253  0.55455467  0.06416286    -0.08130
C1015       C  0.70127660  0.54727053  0.03071504     0.62240
H1016       H  0.73477541  0.58000464  0.07220186     0.12940
H1017       H  0.63763967  0.54013322  0.11891705     0.12950
C1018       C  0.67518171  0.56359899  0.16323148     0.62480
F1019       F  0.73175504  0.55501373  0.02396392    -0.22690
F1020       F  0.68224211  0.56351462  0.01083674    -0.20020
F1021       F  0.69778388  0.51589906  0.02538024    -0.19700
F1022       F  0.66190423  0.59174096  0.17077657    -0.19750
F1023       F  0.70208614  0.55932593  0.18013389    -0.20070
F1024       F  0.65462535  0.54051685  0.17194544    -0.22740
C1025       C  0.67371953  0.58836280  0.93953801    -0.05580
C1026       C  0.65052176  0.57675942  0.91997394     0.00350
C1027       C  0.65843146  0.56862411  0.88891810    -0.08230
C1028       C  0.68955055  0.57172600  0.87917887    -0.05600
C1029       C  0.71287086  0.58174201  0.89940832     0.00330
C1030       C  0.70486389  0.59050232  0.93014554    -0.08130
C1031       C  0.72894466  0.60097975  0.95364110     0.62240
H1032       H  0.66734599  0.59477954  0.96295511     0.12940
H1033       H  0.69611544  0.56626802  0.85553749     0.12950
C1034       C  0.63467461  0.55609671  0.86616308     0.62480
F1035       F  0.71533789  0.61309650  0.98012549    -0.22690
F1036       F  0.74797449  0.62358586  0.94128915    -0.20020
F1037       F  0.74669998  0.57586628  0.96236108    -0.19700
F1038       F  0.61176888  0.57798882  0.86120626    -0.19750
F1039       F  0.62154260  0.52925112  0.87776363    -0.20070
F1040       F  0.64787064  0.54910539  0.83768402    -0.22740
C1041       C  0.41955118  0.35090565  0.09699641    -0.05580
C1042       C  0.40592831  0.32863277  0.07773696     0.00350
C1043       C  0.40852244  0.33210024  0.04505446    -0.08230
C1044       C  0.42830810  0.35505662  0.03306660    -0.05600
C1045       C  0.44383007  0.37606565  0.05238995     0.00330
C1046       C  0.43781287  0.37514409  0.08490706    -0.08130
C1047       C  0.45036916  0.39937542  0.10709697     0.62240
H1048       H  0.41703501  0.34837988  0.12186870     0.12940
H1049       H  0.43190300  0.35627027  0.00819279     0.12950
C1050       C  0.39111969  0.31226025  0.02182010     0.62480
F1051       F  0.43558931  0.39806418  0.13564993    -0.22690
F1052       F  0.44558523  0.42869366  0.09508500    -0.20020
F1053       F  0.48175069  0.39464343  0.11189644    -0.19700
F1054       F  0.36705372  0.29573982  0.03518218    -0.19750
F1055       F  0.41161443  0.29187627  0.00787280    -0.20070
F1056       F  0.37830027  0.33099777  0.99917118    -0.22740
C1057       C  0.62857192  0.32757498  0.06730254    -0.05580
C1058       C  0.62047664  0.31599074  0.09651729     0.00350
C1059       C  0.60389498  0.33503700  0.11770520    -0.08230
C1060       C  0.59607679  0.36534149  0.10856494    -0.05600
C1061       C  0.60396670  0.37674485  0.07913108     0.00330
C1062       C  0.62033957  0.35753413  0.05801297    -0.08130
C1063       C  0.62732472  0.36763430  0.02503027     0.62240
H1064       H  0.64136574  0.31265048  0.05161934     0.12940
H1065       H  0.58304257  0.38003016  0.12430861     0.12950
C1066       C  0.59335476  0.32469660  0.14971167     0.62480
F1067       F  0.64546869  0.34627670  0.00931343    -0.22690
F1068       F  0.64299582  0.39553481  0.02490120    -0.20020
F1069       F  0.59972599  0.37060494  0.00919075    -0.19700
F1070       F  0.60893904  0.34173916  0.17187874    -0.19750
F1071       F  0.59849749  0.29363880  0.15531799    -0.20070
F1072       F  0.56181088  0.33004882  0.15287589    -0.22740
C1073       C  0.48652300  0.61200074  0.87078101    -0.05580
C1074       C  0.48063910  0.58002083  0.87053758     0.00350
C1075       C  0.46226906  0.56727055  0.84645119    -0.08230
C1076       C  0.44835920  0.58719841  0.82500570    -0.05600
C1077       C  0.45334880  0.61913568  0.82568628     0.00330
C1078       C  0.47337650  0.63191033  0.84835920    -0.08130
C1079       C  0.48158329  0.66604886  0.84824282     0.62240
H1080       H  0.50124016  0.62128252  0.88883210     0.12940
H1081       H  0.43337351  0.57788796  0.80716158     0.12950
C1082       C  0.45756656  0.53268448  0.84272884     0.62480
F1083       F  0.50409036  0.67291698  0.87002795    -0.22690
F1084       F  0.45556380  0.68354356  0.85497910    -0.20020
F1085       F  0.49290849  0.67440646  0.81936500    -0.19700
F1086       F  0.43697639  0.52239143  0.86505953    -0.19750
F1087       F  0.48555484  0.51719587  0.84561593    -0.20070
F1088       F  0.44558921  0.52550391  0.81389689    -0.22740
C1089       C  0.42644425  0.44780490  0.86196064    -0.05580
C1090       C  0.44295835  0.42756685  0.88144954     0.00350
C1091       C  0.45305133  0.39856072  0.86947365    -0.08230
C1092       C  0.44760575  0.39182183  0.83797602    -0.05600
C1093       C  0.43264065  0.41291381  0.81834575     0.00330
C1094       C  0.42110501  0.44098017  0.83052675    -0.08130
C1095       C  0.40311643  0.46340274  0.81027424     0.62240
H1096       H  0.41803515  0.46931768  0.87158996     0.12940
H1097       H  0.45510027  0.36995259  0.82822951     0.12950
C1098       C  0.47009043  0.37502578  0.88936120     0.62480
F1099       F  0.39305107  0.48900833  0.82673229    -0.22690
F1100       F  0.37729225  0.44887270  0.79821986    -0.20020
F1101       F  0.42174115  0.47344613  0.78610470    -0.19700
F1102       F  0.45113907  0.36568237  0.91358183    -0.19750
F1103       F  0.49700482  0.38791772  0.90103703    -0.20070
F1104       F  0.47832943  0.34890103  0.87267094    -0.22740
C1105       C  0.34466269  0.05682824  0.40193280    -0.05580
C1106       C  0.32545241  0.07808616  0.41765055     0.00350
C1107       C  0.33139093  0.08473069  0.44912456    -0.08230
C1108       C  0.35428927  0.06783238  0.46450540    -0.05600
C1109       C  0.37349857  0.04619464  0.44947754     0.00330
C1110       C  0.36912070  0.04103316  0.41724700    -0.08130
C1111       C  0.39057625  0.02002225  0.39891871     0.62240
H1112       H  0.34026413  0.05266224  0.37757896     0.12940
H1113       H  0.35763721  0.07230034  0.48882695     0.12950
C1114       C  0.31401854  0.10907737  0.46775552     0.62480
F1115       F  0.38447148  0.02127343  0.36743589    -0.22690
F1116       F  0.38686521  0.98974822  0.40860148    -0.20020
F1117       F  0.42108366  0.02901050  0.40332603    -0.19700
F1118       F  0.29136896  0.09460263  0.48528623    -0.19750
F1119       F  0.30052826  0.13148913  0.44931468    -0.20070
F1120       F  0.33420932  0.12422808  0.48750534    -0.22740
C1121       C  0.92855342  0.95003876  0.35499129    -0.05580
C1122       C  0.93813291  0.93189527  0.38024834     0.00350
C1123       C  0.94149217  0.89949030  0.37623399    -0.08230
C1124       C  0.93863460  0.88713446  0.34608226    -0.05600
C1125       C  0.93285467  0.90616685  0.32026936     0.00330
C1126       C  0.92618386  0.93797520  0.32498446    -0.08130
C1127       C  0.91845980  0.96003027  0.29861825     0.62240
H1128       H  0.92544978  0.97468311  0.35848642     0.12940
H1129       H  0.94203815  0.86260953  0.34218675     0.12950
C1130       C  0.94910771  0.87823969  0.40317252     0.62480
F1131       F  0.90512488  0.98713051  0.30945401    -0.22690
F1132       F  0.89766562  0.94666969  0.27826513    -0.20020
F1133       F  0.94545068  0.96784642  0.28308846    -0.19700
F1134       F  0.92691834  0.88164929  0.42620529    -0.19750
F1135       F  0.97804372  0.88541795  0.41490653    -0.20070
F1136       F  0.94945289  0.84744781  0.39433918    -0.22740
C1137       C  0.12717720  0.87405779  0.57810964    -0.05580
C1138       C  0.09517403  0.87311593  0.57155030     0.00350
C1139       C  0.08110202  0.84365770  0.56612253    -0.08230
C1140       C  0.09835483  0.81692099  0.57213961    -0.05600
C1141       C  0.13012230  0.81774286  0.57899110     0.00330
C1142       C  0.14528947  0.84692022  0.57998655    -0.08130
C1143       C  0.18027364  0.85085931  0.58163144     0.62240
H1144       H  0.13856373  0.89628882  0.58047649     0.12940
H1145       H  0.08658462  0.79482321  0.57200428     0.12950
C1146       C  0.04845841  0.83937356  0.55318042     0.62480
F1147       F  0.18973011  0.87229236  0.55967361    -0.22690
F1148       F  0.19616403  0.82370468  0.57560333    -0.20020
F1149       F  0.18834560  0.86160753  0.61069954    -0.19700
F1150       F  0.04507149  0.85642648  0.52622899    -0.19750
F1151       F  0.02666726  0.84836877  0.57491605    -0.20070
F1152       F  0.04231690  0.80882630  0.54565424    -0.22740
C1153       C  0.18174568  0.05372230  0.56649901    -0.05580
C1154       C  0.15681924  0.03990948  0.58253980     0.00350
C1155       C  0.15382394  0.04515584  0.61496222    -0.08230
C1156       C  0.17700542  0.06246915  0.63023831    -0.05600
C1157       C  0.20231621  0.07524233  0.61410451     0.00330
C1158       C  0.20393347  0.07207598  0.58144353    -0.08130
C1159       C  0.22840687  0.08749937  0.56118196     0.62240
H1160       H  0.18388584  0.05042734  0.54164987     0.12940
H1161       H  0.17615806  0.06526551  0.65519040     0.12950
C1162       C  0.12631041  0.03305317  0.63340629     0.62480
F1163       F  0.21413642  0.10194327  0.53635319    -0.22690
F1164       F  0.24857042  0.06524407  0.54988677    -0.20020
F1165       F  0.24526224  0.10978544  0.57674621    -0.19700
F1166       F  0.12736652  0.00110562  0.63467640    -0.19750
F1167       F  0.09891441  0.04238702  0.61955669    -0.20070
F1168       F  0.12623698  0.04409505  0.66354483    -0.22740
C1169       C  0.19290682  0.08019980  0.38911167    -0.05580
C1170       C  0.21143766  0.09955542  0.40740511     0.00350
C1171       C  0.19842359  0.11431564  0.43371829    -0.08230
C1172       C  0.16828803  0.10614378  0.44305899    -0.05600
C1173       C  0.15080448  0.08452864  0.42643496     0.00330
C1174       C  0.16244383  0.07250592  0.39817218    -0.08130
C1175       C  0.14336288  0.05045673  0.37866475     0.62240
H1176       H  0.20293009  0.07028482  0.36828993     0.12940
H1177       H  0.15887528  0.11499505  0.46464288     0.12950
C1178       C  0.21669094  0.13744218  0.45269197     0.62480
F1179       F  0.15834010  0.04279598  0.35125749    -0.22690
F1180       F  0.11530407  0.06414263  0.37126388    -0.20020
F1181       F  0.13791964  0.02349653  0.39502619    -0.19700
F1182       F  0.22802196  0.16071789  0.43377313    -0.19750
F1183       F  0.24108269  0.12251118  0.46683550    -0.20070
F1184       F  0.19864838  0.15102153  0.47558880    -0.22740
C1185       C  0.92185706  0.84950177  0.59406932    -0.05580
C1186       C  0.90086506  0.83197052  0.57668274     0.00350
C1187       C  0.89285322  0.84194718  0.54647478    -0.08230
C1188       C  0.90954551  0.86655373  0.53291131    -0.05600
C1189       C  0.93286762  0.88234616  0.54921723     0.00330
C1190       C  0.93722973  0.87534740  0.58123196    -0.08130
C1191       C  0.95689375  0.89552258  0.60230372     0.62240
H1192       H  0.92660724  0.84241369  0.61769359     0.12940
H1193       H  0.90525714  0.87277879  0.50897844     0.12950
C1194       C  0.86673007  0.82662144  0.52877094     0.62480
F1195       F  0.95048731  0.88982660  0.63328351    -0.22690
F1196       F  0.95072283  0.92643235  0.59662662    -0.20020
F1197       F  0.98805030  0.88984188  0.59741557    -0.19700
F1198       F  0.83979385  0.82752394  0.54633599    -0.19750
F1199       F  0.87430933  0.79624896  0.52260609    -0.20070
F1200       F  0.86093971  0.84133700  0.50084815    -0.22740
C1201       C  0.07681154  0.58641519  0.20523032    -0.05580
C1202       C  0.08060863  0.61844832  0.20172868     0.00350
C1203       C  0.06618712  0.63346660  0.17614419    -0.08230
C1204       C  0.04965372  0.61536364  0.15442727    -0.05600
C1205       C  0.04592904  0.58325170  0.15814887     0.00330
C1206       C  0.05858315  0.56880131  0.18498664    -0.08130
C1207       C  0.05208695  0.53523523  0.19352352     0.62240
H1208       H  0.08784973  0.57516486  0.22476187     0.12940
H1209       H  0.03957560  0.62624335  0.13419114     0.12950
C1210       C  0.06726916  0.66835333  0.17190123     0.62480
F1211       F  0.05977296  0.52887662  0.22404232    -0.22690
F1212       F  0.06945941  0.51589834  0.17482773    -0.20020
F1213       F  0.02080281  0.52876583  0.19010567    -0.19700
F1214       F  0.09654830  0.67727543  0.16228086    -0.19750
F1215       F  0.05991450  0.68305336  0.19945218    -0.20070
F1216       F  0.04628796  0.67825068  0.14973530    -0.22740
C1217       C  0.67539082  0.44354431  0.41558859    -0.05580
C1218       C  0.70318783  0.45874643  0.40761788     0.00350
C1219       C  0.70514489  0.49137066  0.41186884    -0.08230
C1220       C  0.68083095  0.50667894  0.42748880    -0.05600
C1221       C  0.65402100  0.49097631  0.43706625     0.00330
C1222       C  0.65053187  0.45926457  0.42984752    -0.08130
C1223       C  0.62059334  0.44220979  0.43721535     0.62240
H1224       H  0.67375043  0.41882524  0.41186633     0.12940
H1225       H  0.68305127  0.53110085  0.43280816     0.12950
C1226       C  0.73216872  0.51105117  0.40065195     0.62480
F1227       F  0.62055002  0.41261662  0.42493898    -0.22690
F1228       F  0.59574775  0.45818352  0.42469877    -0.20020
F1229       F  0.61663300  0.43987928  0.46895297    -0.19700
F1230       F  0.74965064  0.49647598  0.37801564    -0.19750
F1231       F  0.75101886  0.51831348  0.42550741    -0.20070
F1232       F  0.72108552  0.53828925  0.38789053    -0.22740
C1233       C  0.08339700  0.66680691  0.57560671    -0.05580
C1234       C  0.08686158  0.65908789  0.54396234     0.00350
C1235       C  0.11135301  0.67348935  0.52685210    -0.08230
C1236       C  0.13043987  0.69540294  0.54197726    -0.05600
C1237       C  0.12589967  0.70367002  0.57316459     0.00330
C1238       C  0.10188156  0.68913697  0.59034740    -0.08130
C1239       C  0.09445945  0.69814340  0.62372978     0.62240
H1240       H  0.06524079  0.65574410  0.58897115     0.12940
H1241       H  0.14855150  0.70730186  0.52921099     0.12950
C1242       C  0.11727098  0.66670422  0.49275830     0.62480
F1243       F  0.06756654  0.68414815  0.63446752    -0.22690
F1244       F  0.09028046  0.72980873  0.62590146    -0.20020
F1245       F  0.11838669  0.68914857  0.64299539    -0.19700
F1246       F  0.09169961  0.67532166  0.47543346    -0.19750
F1247       F  0.12316080  0.63548930  0.48875683    -0.20070
F1248       F  0.14265306  0.68280979  0.48134351    -0.22740
C1249       C  0.92769214  0.67493954  0.55483888    -0.05580
C1250       C  0.92952747  0.65446670  0.57994080     0.00350
C1251       C  0.92013809  0.66414911  0.60964171    -0.08230
C1252       C  0.91009778  0.69493680  0.61343632    -0.05600
C1253       C  0.90697756  0.71550523  0.58804649     0.00330
C1254       C  0.91555223  0.70495310  0.55792334    -0.08130
C1255       C  0.91044189  0.72380450  0.52860133     0.62240
H1256       H  0.93521566  0.66674696  0.53227870     0.12940
H1257       H  0.90377470  0.70293796  0.63638457     0.12950
C1258       C  0.92059364  0.64195897  0.63687395     0.62480
F1259       F  0.91286135  0.70572511  0.50219263    -0.22690
F1260       F  0.93248739  0.74687405  0.52618173    -0.20020
F1261       F  0.88099341  0.73646827  0.52887209    -0.19700
F1262       F  0.95040340  0.63088891  0.64124080    -0.19750
F1263       F  0.90094405  0.61736357  0.63097252    -0.20070
F1264       F  0.91085244  0.65603141  0.66405515    -0.22740
C1265       C  0.07779325  0.44676051  0.37026562    -0.05580
C1266       C  0.04511683  0.44742499  0.37183435     0.00350
C1267       C  0.02797094  0.42810929  0.35138880    -0.08230
C1268       C  0.04436216  0.40967395  0.32975275    -0.05600
C1269       C  0.07693440  0.41031979  0.32742013     0.00330
C1270       C  0.09401989  0.42930278  0.34801270    -0.08130
C1271       C  0.12906790  0.43300116  0.34536874     0.62240
H1272       H  0.09081093  0.46103761  0.38620471     0.12940
H1273       H  0.03178485  0.39531437  0.31350959     0.12950
C1274       C  0.99268959  0.42776291  0.35118448     0.62480
F1275       F  0.14023415  0.45575730  0.36496716    -0.22690
F1276       F  0.13694893  0.44129003  0.31538360    -0.20020
F1277       F  0.14371544  0.40565363  0.35312923    -0.19700
F1278       F  0.98152038  0.45737060  0.34619550    -0.19750
F1279       F  0.98166203  0.41668918  0.37923298    -0.20070
F1280       F  0.98105033  0.40895160  0.32799507    -0.22740
C1281       C  0.10696345  0.61241030  0.36770537    -0.05580
C1282       C  0.07539220  0.60827886  0.37404237     0.00350
C1283       C  0.05307008  0.61609777  0.35132943    -0.08230
C1284       C  0.06313319  0.62905983  0.32327582    -0.05600
C1285       C  0.09476255  0.63227973  0.31611148     0.00330
C1286       C  0.11734003  0.62336174  0.33865219    -0.08130
C1287       C  0.15216145  0.62393670  0.33244613     0.62240
H1288       H  0.12352244  0.60614356  0.38550176     0.12940
H1289       H  0.04618581  0.63599610  0.30612580     0.12950
C1290       C  0.01874122  0.61008818  0.35633882     0.62480
F1291       F  0.16806526  0.60548282  0.35332253    -0.22690
F1292       F  0.16332503  0.65373541  0.33552108    -0.20020
F1293       F  0.15876195  0.61290727  0.30305147    -0.19700
F1294       F  0.00857202  0.62597396  0.38224004    -0.19750
F1295       F  0.01399714  0.57871549  0.36031747    -0.20070
F1296       F  0.00099291  0.61953975  0.33133910    -0.22740
C1297       C  0.87717638  0.45179113  0.59044965    -0.05580
C1298       C  0.87453029  0.48398159  0.58694196     0.00350
C1299       C  0.84969888  0.49961119  0.60199915    -0.08230
C1300       C  0.82783862  0.48197294  0.61897653    -0.05600
C1301       C  0.82950293  0.44945307  0.62069869     0.00330
C1302       C  0.85486048  0.43409020  0.60620795    -0.08130
C1303       C  0.85840632  0.39913766  0.60604034     0.62240
H1304       H  0.89674314  0.44021447  0.57968077     0.12940
H1305       H  0.80838453  0.49337267  0.63013326     0.12950
C1306       C  0.84526196  0.53434493  0.59904879     0.62480
F1307       F  0.88001465  0.38934031  0.58428960    -0.22690
F1308       F  0.83049318  0.38511611  0.59882557    -0.20020
F1309       F  0.86859233  0.38948185  0.63477932    -0.19700
F1310       F  0.84289553  0.54243087  0.56809285    -0.19750
F1311       F  0.87022729  0.54953676  0.61216578    -0.20070
F1312       F  0.81857059  0.54435997  0.61398558    -0.22740
C1313       C  0.85867850  0.42903272  0.44952943    -0.05580
C1314       C  0.87766208  0.44672775  0.42965439     0.00350
C1315       C  0.86595771  0.45613757  0.40029958    -0.08230
C1316       C  0.83537432  0.44810802  0.39242766    -0.05600
C1317       C  0.81634900  0.43122127  0.41263475     0.00330
C1318       C  0.82816950  0.42076427  0.44129143    -0.08130
C1319       C  0.80866146  0.40077295  0.46272828     0.62240
H1320       H  0.86785376  0.42204287  0.47181981     0.12940
H1321       H  0.82574447  0.45526983  0.37037824     0.12950
C1322       C  0.88490249  0.47559810  0.37772235     0.62480
F1323       F  0.82494387  0.39193156  0.48891579    -0.22690
F1324       F  0.79954376  0.37428551  0.44724971    -0.20020
F1325       F  0.78257102  0.41692379  0.47216709    -0.19700
F1326       F  0.91043144  0.45895243  0.36759821    -0.19750
F1327       F  0.89463309  0.50249918  0.39205110    -0.20070
F1328       F  0.86789330  0.48397337  0.35183983    -0.22740
C1329       C  0.34690800  0.94146621  0.10351942    -0.05580
C1330       C  0.33049596  0.95781983  0.12625341     0.00350
C1331       C  0.33972145  0.98834418  0.13386125    -0.08230
C1332       C  0.36350504  0.00251408  0.11635022    -0.05600
C1333       C  0.37833583  0.98706214  0.09172717     0.00330
C1334       C  0.37099411  0.95532637  0.08626237    -0.08130
C1335       C  0.38809507  0.93579221  0.06235757     0.62240
H1336       H  0.33972384  0.91799740  0.09841804     0.12940
H1337       H  0.36971524  0.02633897  0.12096515     0.12950
C1338       C  0.32457981  0.00576973  0.16048350     0.62480
F1339       F  0.38230450  0.90452859  0.06642452    -0.22690
F1340       F  0.41980983  0.94017575  0.06497079    -0.20020
F1341       F  0.37853151  0.94377818  0.03285311    -0.19700
F1342       F  0.32548442  0.98783531  0.18705380    -0.19750
F1343       F  0.29403729  0.01253847  0.15346972    -0.20070
F1344       F  0.33969689  0.03334786  0.16661536    -0.22740
C1345       C  0.95430755  0.08187457  0.36851821    -0.05580
C1346       C  0.98593132  0.08838690  0.37358210     0.00350
C1347       C  0.00066195  0.11135149  0.35498085    -0.08230
C1348       C  0.98326252  0.12615226  0.33153502    -0.05600
C1349       C  0.95196690  0.11891132  0.32621291     0.00330
C1350       C  0.93709039  0.09656293  0.34508279    -0.08130
C1351       C  0.90338922  0.08758872  0.33997785     0.62240
H1352       H  0.94312016  0.06461910  0.38293943     0.12940
H1353       H  0.99411168  0.14322677  0.31663267     0.12950
C1354       C  0.03474388  0.11949398  0.35879470     0.62480
F1355       F  0.89444408  0.06311838  0.35872338    -0.22690
F1356       F  0.89899135  0.07882674  0.30945651    -0.20020
F1357       F  0.88439014  0.11244646  0.34679024    -0.19700
F1358       F  0.05275056  0.09315126  0.35568352    -0.19750
F1359       F  0.03949026  0.13244041  0.38770899    -0.20070
F1360       F  0.04465438  0.14066220  0.33676597    -0.22740
C1361       C  0.18391809  0.28235302  0.84377026    -0.05580
C1362       C  0.19762304  0.28241452  0.87319134     0.00350
C1363       C  0.23022465  0.27963145  0.87586228    -0.08230
C1364       C  0.24803924  0.27473797  0.84884188    -0.05600
C1365       C  0.23413342  0.27262335  0.81948277     0.00330
C1366       C  0.20169912  0.27793150  0.81664972    -0.08130
C1367       C  0.18582495  0.27922074  0.78526560     0.62240
H1368       H  0.15888633  0.28441993  0.84234473     0.12940
H1369       H  0.27293728  0.27161407  0.85051296     0.12950
C1370       C  0.24583342  0.28132930  0.90729775     0.62480
F1371       F  0.15569943  0.29022019  0.78770204    -0.22690
F1372       F  0.18458797  0.25001753  0.77236058    -0.20020
F1373       F  0.20198539  0.29878885  0.76560260    -0.19700
F1374       F  0.23597237  0.25707351  0.92578276    -0.19750
F1375       F  0.23818226  0.30899675  0.92151745    -0.20070
F1376       F  0.27786277  0.27978089  0.90480208    -0.22740
C1377       C  0.09449447  0.32599096  0.95225262    -0.05580
C1378       C  0.12672193  0.32623295  0.95640805     0.00350
C1379       C  0.14003370  0.34896347  0.97590324    -0.08230
C1380       C  0.12035654  0.37098515  0.99034789    -0.05600
C1381       C  0.08781418  0.37072823  0.98639135     0.00330
C1382       C  0.07462831  0.34728556  0.96704578    -0.08130
C1383       C  0.03977265  0.34355865  0.96224185     0.62240
H1384       H  0.08489832  0.30824009  0.93738425     0.12940
H1385       H  0.13039205  0.38857200  0.00508400     0.12950
C1386       C  0.17467319  0.34932344  0.98220284     0.62480
F1387       F  0.03261362  0.31703732  0.94573761    -0.22690
F1388       F  0.02837929  0.36846637  0.94564404    -0.20020
F1389       F  0.02479262  0.34142165  0.99061359    -0.19700
F1390       F  0.19071432  0.35571991  0.95514915    -0.19750
F1391       F  0.18395201  0.32080362  0.99344228    -0.20070
F1392       F  0.18256692  0.37155163  0.00388774    -0.22740
C1393       C  0.17032106  0.00124936  0.92538111    -0.05580
C1394       C  0.15790107  0.98273921  0.94935544     0.00350
C1395       C  0.16689991  0.95081882  0.95081644    -0.08230
C1396       C  0.18967271  0.93992920  0.93007795    -0.05600
C1397       C  0.20321793  0.95904529  0.90770506     0.00330
C1398       C  0.19267855  0.98984871  0.90433630    -0.08130
C1399       C  0.20463685  0.01034500  0.87828568     0.62240
H1400       H  0.16295517  0.02512381  0.92354527     0.12940
H1401       H  0.19817598  0.91640470  0.93191427     0.12950
C1402       C  0.15330972  0.92779539  0.97396208     0.62480
F1403       F  0.18829015  0.03788338  0.87647907    -0.22690
F1404       F  0.20151169  0.99512285  0.85025960    -0.20020
F1405       F  0.23556403  0.01738999  0.88290641    -0.19700
F1406       F  0.12126528  0.92745624  0.97164798    -0.19750
F1407       F  0.16205077  0.93566435  0.00376001    -0.20070
F1408       F  0.16358012  0.89788362  0.96860870    -0.22740
C1409       C  0.17471169  0.94362828  0.09015841    -0.05580
C1410       C  0.15254398  0.95695586  0.11010567     0.00350
C1411       C  0.16173472  0.96620467  0.14039495    -0.08230
C1412       C  0.19275528  0.96147228  0.14942761    -0.05600
C1413       C  0.21484892  0.94874861  0.12919697     0.00330
C1414       C  0.20582773  0.93955869  0.09897574    -0.08130
C1415       C  0.22874066  0.92562947  0.07590289     0.62240
H1416       H  0.16755028  0.93704181  0.06705341     0.12940
H1417       H  0.20019516  0.96767255  0.17257206     0.12950
C1418       C  0.13952413  0.98187802  0.16293549     0.62480
F1419       F  0.21409058  0.91506734  0.04940922    -0.22690
F1420       F  0.24414902  0.90086664  0.08902764    -0.20020
F1421       F  0.25015275  0.94772964  0.06698640    -0.19700
F1422       F  0.11576989  0.96177550  0.17074061    -0.19750
F1423       F  0.12730234  0.00830661  0.14956741    -0.20070
F1424       F  0.15415425  0.99058172  0.19010934    -0.22740
C1425       C  0.95981956  0.17840635  0.95463197    -0.05580
C1426       C  0.94791556  0.16029570  0.97918545     0.00350
C1427       C  0.91656955  0.16497868  0.98868598    -0.08230
C1428       C  0.89926735  0.18898899  0.97469280    -0.05600
C1429       C  0.91199344  0.20781143  0.95138177     0.00330
C1430       C  0.94237897  0.20199475  0.94049544    -0.08130
C1431       C  0.95629595  0.22085048  0.91413414     0.62240
H1432       H  0.98341485  0.17453514  0.94694238     0.12940
H1433       H  0.87575993  0.19376656  0.98233570     0.12950
C1434       C  0.90102748  0.14457622  0.01285800     0.62480
F1435       F  0.98495640  0.20955764  0.90495633    -0.22690
F1436       F  0.96007727  0.25124172  0.92334931    -0.20020
F1437       F  0.93683320  0.21992295  0.88870858    -0.19700
F1438       F  0.91355051  0.15033581  0.04175957    -0.19750
F1439       F  0.90525250  0.11374830  0.00526731    -0.20070
F1440       F  0.86937003  0.15000654  0.01462937    -0.22740
C1441       C  0.13878451  0.15757817  0.95036640    -0.05580
C1442       C  0.10618254  0.15438179  0.95021097     0.00350
C1443       C  0.08768823  0.18130784  0.94467588    -0.08230
C1444       C  0.10266486  0.20962991  0.93883287    -0.05600
C1445       C  0.13499670  0.21272097  0.93973948     0.00330
C1446       C  0.15354191  0.18636373  0.94603394    -0.08130
C1447       C  0.18861500  0.18843776  0.94948277     0.62240
H1448       H  0.15293508  0.13738810  0.95493857     0.12940
H1449       H  0.08907954  0.23015382  0.93396494     0.12950
C1450       C  0.05235279  0.18116293  0.94552199     0.62480
F1451       F  0.20046588  0.16281068  0.96469213    -0.22690
F1452       F  0.19659187  0.21429288  0.96658112    -0.20020
F1453       F  0.20250249  0.19002734  0.92060190    -0.19700
F1454       F  0.04210693  0.17512322  0.97536737    -0.19750
F1455       F  0.04105181  0.15909578  0.92527361    -0.20070
F1456       F  0.03993743  0.20942702  0.93688547    -0.22740
C1457       C  0.95147737  0.94517858  0.20946769    -0.05580
C1458       C  0.95554638  0.91304508  0.20777810     0.00350
C1459       C  0.97391270  0.90049319  0.18344181    -0.08230
C1460       C  0.98678192  0.92086305  0.16107542    -0.05600
C1461       C  0.98229661  0.95307502  0.16286473     0.00330
C1462       C  0.96542467  0.96550480  0.18827320    -0.08130
C1463       C  0.96320440  0.00015249  0.19405079     0.62240
H1464       H  0.93714448  0.95439401  0.22788815     0.12940
H1465       H  0.00025323  0.91177994  0.14187534     0.12950
C1466       C  0.98053278  0.86605802  0.18151367     0.62480
F1467       F  0.95145031  0.00670371  0.22325480    -0.22690
F1468       F  0.94380261  0.01357879  0.17250624    -0.20020
F1469       F  0.99238242  0.01342336  0.19196016    -0.19700
F1470       F  0.95344707  0.85007147  0.17553152    -0.19750
F1471       F  0.99290279  0.85581804  0.20924832    -0.20070
F1472       F  0.00154145  0.85924325  0.15810461    -0.22740
C1473       C  0.91440003  0.10694598  0.19627451    -0.05580
C1474       C  0.93614878  0.12599100  0.21119542     0.00350
C1475       C  0.96226073  0.13709764  0.19464461    -0.08230
C1476       C  0.96654910  0.12746667  0.16381517    -0.05600
C1477       C  0.94544535  0.10751962  0.14926146     0.00330
C1478       C  0.91858604  0.09753843  0.16528846    -0.08130
C1479       C  0.89395844  0.07834054  0.14918126     0.62240
H1480       H  0.89400080  0.09968190  0.20912142     0.12940
H1481       H  0.98705863  0.13463962  0.15107612     0.12950
C1482       C  0.98524220  0.15919202  0.20944668     0.62480
F1483       F  0.86872231  0.07269583  0.16834941    -0.22690
F1484       F  0.90606680  0.05018767  0.14004031    -0.20020
F1485       F  0.88355137  0.09404054  0.12325656    -0.19700
F1486       F  0.99937353  0.14505280  0.23446547    -0.19750
F1487       F  0.96988720  0.18548331  0.21948974    -0.20070
F1488       F  0.00824037  0.16821570  0.18881942    -0.22740
C1489       C  0.20127954  0.77147569  0.70875516    -0.05580
C1490       C  0.23084139  0.75722168  0.70773832     0.00350
C1491       C  0.23804501  0.73876473  0.68081307    -0.08230
C1492       C  0.21715891  0.73904252  0.65563886    -0.05600
C1493       C  0.18897180  0.75504248  0.65651915     0.00330
C1494       C  0.18007139  0.77024392  0.68418537    -0.08130
C1495       C  0.14866013  0.78562958  0.68915158     0.62240
H1496       H  0.19398607  0.78346851  0.72954510     0.12940
H1497       H  0.22270344  0.72670691  0.63449019     0.12950
C1498       C  0.26618106  0.71759923  0.67755921     0.62480
F1499       F  0.13757709  0.77879441  0.71854272    -0.22690
F1500       F  0.12650124  0.77572421  0.66829190    -0.20020
F1501       F  0.15202592  0.81736063  0.68662030    -0.19700
F1502       F  0.26219425  0.69189156  0.69631569    -0.19750
F1503       F  0.29319526  0.73320181  0.68483458    -0.20070
F1504       F  0.26975858  0.70648072  0.64763022    -0.22740
C1505       C  0.28290316  0.83316637  0.82025389    -0.05580
C1506       C  0.25789320  0.82440506  0.80123586     0.00350
C1507       C  0.22961624  0.84154098  0.80423721    -0.08230
C1508       C  0.22956479  0.86873692  0.82256158    -0.05600
C1509       C  0.25442710  0.87594519  0.84241932     0.00330
C1510       C  0.27954457  0.85474925  0.84390855    -0.08130
C1511       C  0.30171720  0.85137796  0.87114073     0.62240
H1512       H  0.30492305  0.82131977  0.81890945     0.12940
H1513       H  0.20962763  0.88397962  0.82181529     0.12950
C1514       C  0.19898903  0.83142763  0.79016500     0.62480
F1515       F  0.30392252  0.82045870  0.87932222    -0.22690
F1516       F  0.29154407  0.86697162  0.89715619    -0.20020
F1517       F  0.33099807  0.86170878  0.86286734    -0.19700
F1518       F  0.19656829  0.79952938  0.78959945    -0.19750
F1519       F  0.19623292  0.84322710  0.76050555    -0.20070
F1520       F  0.17424151  0.84231998  0.80764326    -0.22740
C1521       C  0.31667163  0.69983807  0.79013805    -0.05580
C1522       C  0.31944580  0.73042756  0.77991084     0.00350
C1523       C  0.34925984  0.74319873  0.77388512    -0.08230
C1524       C  0.37542479  0.72428381  0.77768412    -0.05600
C1525       C  0.37259017  0.69327117  0.78654520     0.00330
C1526       C  0.34291152  0.68078428  0.79348785    -0.08130
C1527       C  0.33879068  0.64724702  0.80318263     0.62240
H1528       H  0.29362524  0.69080175  0.79457409     0.12940
H1529       H  0.39836828  0.73302114  0.77214309     0.12950
C1530       C  0.35349291  0.77607909  0.76196544     0.62480
F1531       F  0.30777342  0.63949471  0.80659596    -0.22690
F1532       F  0.35327689  0.64223893  0.83127716    -0.20020
F1533       F  0.35154820  0.62783104  0.78111118    -0.19700
F1534       F  0.34381223  0.79693697  0.78418680    -0.19750
F1535       F  0.33637518  0.78036626  0.73522562    -0.20070
F1536       F  0.38426089  0.78258415  0.75510313    -0.22740
C1537       C  0.66908636  0.25092491  0.75945435    -0.05580
C1538       C  0.69793530  0.23566764  0.76006893     0.00350
C1539       C  0.69961720  0.20366423  0.75305818    -0.08230
C1540       C  0.67189879  0.18737900  0.74916215    -0.05600
C1541       C  0.64304152  0.20221817  0.75036906     0.00330
C1542       C  0.64135382  0.23452831  0.75443091    -0.08130
C1543       C  0.61040182  0.25117088  0.75353701     0.62240
H1544       H  0.66842395  0.27561624  0.76372653     0.12940
H1545       H  0.67270322  0.16248615  0.74591480     0.12950
C1546       C  0.72954853  0.18534351  0.74948642     0.62480
F1547       F  0.61393094  0.28290663  0.75604502    -0.22690
F1548       F  0.59174146  0.24114978  0.77768712    -0.20020
F1549       F  0.59581356  0.24491242  0.72570450    -0.19700
F1550       F  0.73234534  0.16511206  0.77418634    -0.19750
F1551       F  0.75576188  0.20368588  0.74796152    -0.20070
F1552       F  0.72844879  0.16834079  0.72232820    -0.22740
C1553       C  0.80970193  0.28416198  0.83619761    -0.05580
C1554       C  0.79151006  0.25843571  0.82800956     0.00350
C1555       C  0.79537941  0.23069115  0.84590000    -0.08230
C1556       C  0.81555187  0.23129353  0.87181849    -0.05600
C1557       C  0.83539386  0.25645594  0.87737182     0.00330
C1558       C  0.83465052  0.28157393  0.85634760    -0.08130
C1559       C  0.86089999  0.30447907  0.85148593     0.62240
H1560       H  0.80686030  0.30608676  0.82441079     0.12940
H1561       H  0.81627786  0.21177322  0.88755523     0.12950
C1562       C  0.77974447  0.20019321  0.83831691     0.62480
F1563       F  0.86728770  0.30700063  0.82008316    -0.22690
F1564       F  0.88811875  0.29509846  0.86558078    -0.20020
F1565       F  0.85192951  0.33325299  0.86228083    -0.19700
F1566       F  0.78007858  0.19511020  0.80672073    -0.19750
F1567       F  0.74961668  0.20016968  0.84947583    -0.20070
F1568       F  0.79514378  0.17556016  0.85194777    -0.22740
C1569       C  0.78556266  0.31228397  0.70264278    -0.05580
C1570       C  0.77205190  0.31809408  0.73155584     0.00350
C1571       C  0.76446707  0.34871178  0.74044208    -0.08230
C1572       C  0.77027622  0.37281570  0.71938978    -0.05600
C1573       C  0.78264672  0.36693705  0.68987101     0.00330
C1574       C  0.79074879  0.33630548  0.68132006    -0.08130
C1575       C  0.80420519  0.32890961  0.64968438     0.62240
H1576       H  0.79107712  0.28857802  0.69660689     0.12940
H1577       H  0.76355173  0.39630863  0.72506829     0.12950
C1578       C  0.74896600  0.35559431  0.77139310     0.62480
F1579       F  0.80824070  0.29741217  0.64541270    -0.22690
F1580       F  0.83284675  0.34283464  0.64691935    -0.20020
F1581       F  0.78476345  0.33964287  0.62658787    -0.19700
F1582       F  0.76808845  0.34635304  0.79535132    -0.19750
F1583       F  0.72107766  0.33984711  0.77348413    -0.20070
F1584       F  0.74286693  0.38684409  0.77504760    -0.22740
C1585       C  0.74092716  0.27921306  0.17831742    -0.05580
C1586       C  0.73677900  0.26021262  0.20427372     0.00350
C1587       C  0.71481292  0.23586384  0.20339707    -0.08230
C1588       C  0.69574505  0.23296783  0.17711458    -0.05600
C1589       C  0.69865369  0.25316783  0.15176467     0.00330
C1590       C  0.72300430  0.27537901  0.15149873    -0.08130
C1591       C  0.73082032  0.29575232  0.12382374     0.62240
H1592       H  0.75842093  0.29724918  0.17902889     0.12940
H1593       H  0.67726623  0.21598460  0.17688806     0.12950
C1594       C  0.71081589  0.21386089  0.23057748     0.62480
F1595       F  0.76251529  0.29492173  0.11843298    -0.22690
F1596       F  0.72222086  0.32593758  0.13018257    -0.20020
F1597       F  0.71636441  0.28623889  0.09688271    -0.19700
F1598       F  0.70389132  0.23037602  0.25718047    -0.19750
F1599       F  0.73795278  0.19737236  0.23506945    -0.20070
F1600       F  0.68712007  0.19282829  0.22559240    -0.22740
C1601       C  0.87780215  0.22116623  0.28222920    -0.05580
C1602       C  0.87108005  0.18949913  0.28064787     0.00350
C1603       C  0.83995994  0.17947769  0.27790327    -0.08230
C1604       C  0.81637828  0.20181273  0.27639819    -0.05600
C1605       C  0.82305815  0.23360983  0.27604372     0.00330
C1606       C  0.85427819  0.24368193  0.27953861    -0.08130
C1607       C  0.86317114  0.27771690  0.27879551     0.62240
H1608       H  0.90190454  0.22806065  0.28409579     0.12940
H1609       H  0.79244631  0.19461069  0.27372682     0.12950
C1610       C  0.83182696  0.14537599  0.27526948     0.62480
F1611       F  0.89506003  0.28170786  0.27756036    -0.22690
F1612       F  0.85249680  0.29229980  0.30525389    -0.20020
F1613       F  0.85058855  0.29187041  0.25294926    -0.19700
F1614       F  0.84378381  0.12943319  0.30030128    -0.19750
F1615       F  0.84414239  0.13330337  0.24820752    -0.20070
F1616       F  0.80003391  0.14063027  0.27476625    -0.22740
C1617       C  0.74150364  0.31907662  0.32776640    -0.05580
C1618       C  0.75484370  0.32488862  0.29861478     0.00350
C1619       C  0.76364369  0.35542233  0.29041460    -0.08230
C1620       C  0.75984022  0.37910107  0.31244491    -0.05600
C1621       C  0.74788011  0.37298106  0.34208507     0.00330
C1622       C  0.73794297  0.34276194  0.34984705    -0.08130
C1623       C  0.72489077  0.33550142  0.38176568     0.62240
H1624       H  0.73508833  0.29552018  0.33350259     0.12940
H1625       H  0.76754961  0.40240535  0.30728379     0.12950
C1626       C  0.77840668  0.36265970  0.25918602     0.62480
F1627       F  0.71662556  0.30467354  0.38459760    -0.22690
F1628       F  0.69870955  0.35328405  0.38711699    -0.20020
F1629       F  0.74684283  0.34200904  0.40417148    -0.19700
F1630       F  0.75761740  0.35637241  0.23567947    -0.19750
F1631       F  0.80479573  0.34484599  0.25507658    -0.20070
F1632       F  0.78689626  0.39346841  0.25678318    -0.22740
C1633       C  0.29434981  0.29371376  0.19133716    -0.05580
C1634       C  0.29467121  0.26582692  0.20831649     0.00350
C1635       C  0.31311685  0.24123621  0.19699022    -0.08230
C1636       C  0.33586329  0.24780243  0.17498114    -0.05600
C1637       C  0.33458905  0.27452851  0.15613796     0.00330
C1638       C  0.31179228  0.29737750  0.16369637    -0.08130
C1639       C  0.30453778  0.32521871  0.14347959     0.62240
H1640       H  0.28004134  0.31269928  0.19937193     0.12940
H1641       H  0.35331220  0.23017875  0.17114799     0.12950
C1642       C  0.30774126  0.20729685  0.20461966     0.62480
F1643       F  0.27418082  0.33488862  0.14802361    -0.22690
F1644       F  0.30761527  0.31810430  0.11235457    -0.20020
F1645       F  0.32392388  0.34950417  0.15113135    -0.19700
F1646       F  0.27903460  0.20237198  0.21819421    -0.19750
F1647       F  0.33097175  0.19649393  0.22387626    -0.20070
F1648       F  0.30835660  0.19013328  0.17751207    -0.22740
C1649       C  0.28524430  0.18586241  0.29744140    -0.05580
C1650       C  0.28372349  0.21536157  0.31116573     0.00350
C1651       C  0.28648668  0.21814876  0.34377164    -0.08230
C1652       C  0.28729338  0.19102091  0.36168046    -0.05600
C1653       C  0.28669365  0.16166977  0.34786845     0.00330
C1654       C  0.28663905  0.15882140  0.31532511    -0.08130
C1655       C  0.28644999  0.12729689  0.29978735     0.62240
H1656       H  0.28316190  0.18396956  0.27256643     0.12940
H1657       H  0.28748257  0.19272320  0.38677751     0.12950
C1658       C  0.28835939  0.24880361  0.36074670     0.62480
F1659       F  0.28708180  0.12967609  0.26776409    -0.22690
F1660       F  0.25992328  0.11126278  0.30817825    -0.20020
F1661       F  0.31226029  0.11062245  0.30895795    -0.19700
F1662       F  0.26139483  0.25325274  0.37769029    -0.19750
F1663       F  0.29255462  0.27367875  0.34100081    -0.20070
F1664       F  0.31328892  0.24820513  0.38090245    -0.22740
C1665       C  0.15238518  0.30753198  0.28649433    -0.05580
C1666       C  0.15780281  0.33916266  0.28167882     0.00350
C1667       C  0.18849208  0.34996683  0.27675543    -0.08230
C1668       C  0.21275248  0.32844266  0.27606352    -0.05600
C1669       C  0.20732017  0.29663443  0.27906103     0.00330
C1670       C  0.17675609  0.28575797  0.28499238    -0.08130
C1671       C  0.16954087  0.25152878  0.28848756     0.62240
H1672       H  0.12868984  0.29995663  0.29022227     0.12940
H1673       H  0.23628458  0.33617457  0.27159198     0.12950
C1674       C  0.19567129  0.38387203  0.27081134     0.62480
F1675       F  0.13786340  0.24602489  0.28887074    -0.22690
F1676       F  0.18157996  0.24060190  0.31604973    -0.20020
F1677       F  0.18223552  0.23508432  0.26402681    -0.19700
F1678       F  0.18171970  0.40201926  0.29322287    -0.19750
F1679       F  0.18488194  0.39233432  0.24189571    -0.20070
F1680       F  0.22727060  0.38975419  0.27149009    -0.22740
C1681       C  0.77128629  0.68193937  0.23701526    -0.05580
C1682       C  0.75431318  0.70832254  0.22903376     0.00350
C1683       C  0.73284816  0.70709139  0.20434938    -0.08230
C1684       C  0.73151908  0.68006447  0.18607867    -0.05600
C1685       C  0.75013027  0.65419754  0.19285071     0.00330
C1686       C  0.76851147  0.65436804  0.22021172    -0.08130
C1687       C  0.78599603  0.62632727  0.23231051     0.62240
H1688       H  0.78684752  0.68290045  0.25672895     0.12940
H1689       H  0.71718967  0.67957765  0.16550322     0.12950
C1690       C  0.71204952  0.73446633  0.19725732     0.62480
F1691       F  0.78166546  0.62382302  0.26403557    -0.22690
F1692       F  0.81739573  0.62981705  0.22637730    -0.20020
F1693       F  0.77576570  0.59902326  0.21918020    -0.19700
F1694       F  0.72996337  0.76001917  0.18997442    -0.19750
F1695       F  0.69392615  0.74112946  0.22295635    -0.20070
F1696       F  0.69245855  0.72852082  0.17259169    -0.22740
C1697       C  0.81681876  0.83264905  0.25089245    -0.05580
C1698       C  0.82155589  0.80045792  0.25072762     0.00350
C1699       C  0.85236237  0.78866795  0.24816280    -0.08230
C1700       C  0.87721772  0.80981802  0.24658860    -0.05600
C1701       C  0.87233230  0.84177548  0.24860102     0.00330
C1702       C  0.84175970  0.85357407  0.25067075    -0.08130
C1703       C  0.83562579  0.88804046  0.25408914     0.62240
H1704       H  0.79327492  0.84125757  0.25300180     0.12940
H1705       H  0.90094409  0.80155545  0.24527912     0.12950
C1706       C  0.85953550  0.75419226  0.24875872     0.62480
F1707       F  0.80420345  0.89478839  0.25328809    -0.22690
F1708       F  0.84997527  0.90401036  0.23022637    -0.20020
F1709       F  0.84709518  0.89839377  0.28212953    -0.19700
F1710       F  0.85030435  0.74068941  0.22128439    -0.19750
F1711       F  0.84440465  0.74012940  0.27335556    -0.20070
F1712       F  0.89102164  0.74858522  0.25209294    -0.22740
C1713       C  0.72193436  0.77067910  0.37582389    -0.05580
C1714       C  0.69177670  0.78230033  0.37145334     0.00350
C1715       C  0.68213313  0.79141602  0.34147311    -0.08230
C1716       C  0.70301418  0.78779087  0.31654451    -0.05600
C1717       C  0.73254299  0.77473043  0.32077769     0.00330
C1718       C  0.74242987  0.76618028  0.35082100    -0.08130
C1719       C  0.77367512  0.75072887  0.35613265     0.62240
H1720       H  0.72855090  0.76332324  0.39890723     0.12940
H1721       H  0.69605514  0.79400684  0.29323935     0.12950
C1722       C  0.64957391  0.80347520  0.33563617     0.62480
F1723       F  0.77785542  0.74259891  0.38691051    -0.22690
F1724       F  0.79737547  0.77064268  0.34779448    -0.20020
F1725       F  0.77576097  0.72409098  0.33847486    -0.19700
F1726       F  0.64508717  0.83076627  0.35170789    -0.19750
F1727       F  0.62791384  0.78189896  0.34537325    -0.20070
F1728       F  0.64452342  0.80936528  0.30449237    -0.22740
C1729       C  0.24813925  0.83264322  0.21502225    -0.05580
C1730       C  0.27348596  0.82467491  0.23393832     0.00350
C1731       C  0.30137705  0.84232392  0.23054294    -0.08230
C1732       C  0.30118888  0.86846993  0.21069699    -0.05600
C1733       C  0.27638291  0.87453642  0.19034932     0.00330
C1734       C  0.25095076  0.85355214  0.19052600    -0.08130
C1735       C  0.22788669  0.84948616  0.16417030     0.62240
H1736       H  0.22632866  0.82036096  0.21728755     0.12940
H1737       H  0.32089047  0.88398865  0.21083506     0.12950
C1738       C  0.33173093  0.83423937  0.24647034     0.62480
F1739       F  0.22418324  0.81827018  0.15794187    -0.22690
F1740       F  0.23797395  0.86307212  0.13698841    -0.20020
F1741       F  0.19928640  0.86149852  0.17258001    -0.19700
F1742       F  0.33575846  0.80253715  0.24823359    -0.19750
F1743       F  0.33226767  0.84705510  0.27582214    -0.20070
F1744       F  0.35682120  0.84592544  0.23004179    -0.22740
C1745       C  0.18810701  0.74000806  0.24553371    -0.05580
C1746       C  0.21693962  0.72610218  0.25208401     0.00350
C1747       C  0.21939948  0.69339725  0.25222898    -0.08230
C1748       C  0.19221031  0.67583044  0.24902000    -0.05600
C1749       C  0.16325910  0.68985401  0.24426628     0.00330
C1750       C  0.16106664  0.72230590  0.24159119    -0.08130
C1751       C  0.13006249  0.73798444  0.23582656     0.62240
H1752       H  0.18659112  0.76503033  0.24524986     0.12940
H1753       H  0.19342129  0.65084139  0.25110113     0.12950
C1754       C  0.24972518  0.67592208  0.25601559     0.62480
F1755       F  0.13309466  0.76976441  0.23310834    -0.22690
F1756       F  0.10989916  0.73189277  0.26011122    -0.20020
F1757       F  0.11738349  0.72686604  0.20861267    -0.19700
F1758       F  0.25041565  0.66234602  0.28505799    -0.19750
F1759       F  0.27554886  0.69460082  0.25251916    -0.20070
F1760       F  0.25165604  0.65293255  0.23377172    -0.22740
C1761       C  0.30882595  0.76023419  0.38359074    -0.05580
C1762       C  0.33881157  0.74891187  0.37740500     0.00350
C1763       C  0.34746157  0.74140808  0.34665756    -0.08230
C1764       C  0.32606806  0.74669453  0.32271749    -0.05600
C1765       C  0.29671185  0.75946808  0.32868392     0.00330
C1766       C  0.28739968  0.76556974  0.35954372    -0.08130
C1767       C  0.25544677  0.77852690  0.36672034     0.62240
H1768       H  0.30295205  0.76635977  0.40725370     0.12940
H1769       H  0.33242674  0.74180368  0.29888453     0.12950
C1770       C  0.37959694  0.72897647  0.33919063     0.62480
F1771       F  0.25116397  0.78323598  0.39820838    -0.22690
F1772       F  0.23293380  0.75809790  0.35666777    -0.20020
F1773       F  0.25161444  0.80656585  0.35173298    -0.19700
F1774       F  0.38480236  0.70217918  0.35593159    -0.19750
F1775       F  0.40185390  0.75067521  0.34690293    -0.20070
F1776       F  0.38290865  0.72212301  0.30799094    -0.22740
C1777       C  0.82213345  0.76957325  0.70564313    -0.05580
C1778       C  0.79052256  0.76380122  0.70061180     0.00350
C1779       C  0.77882944  0.76318200  0.66989919    -0.08230
C1780       C  0.79964596  0.76834139  0.64508791    -0.05600
C1781       C  0.83126650  0.77404756  0.65031730     0.00330
C1782       C  0.84286499  0.77445700  0.68098921    -0.08130
C1783       C  0.87717857  0.77930740  0.68760250     0.62240
H1784       H  0.83049683  0.77005410  0.72930161     0.12940
H1785       H  0.79156618  0.76741384  0.62134720     0.12950
C1786       C  0.74496073  0.75614225  0.66325203     0.62480
F1787       F  0.88336535  0.77921383  0.71909266    -0.22690
F1788       F  0.88667314  0.80746280  0.67566835    -0.20020
F1789       F  0.89444549  0.75589720  0.67411288    -0.19700
F1790       F  0.72649373  0.78047962  0.67286313    -0.19750
F1791       F  0.73605512  0.72952530  0.67872313    -0.20070
F1792       F  0.73981754  0.75164792  0.63189510    -0.22740
C1793       C  0.74647560  0.70080359  0.82211911    -0.05580
C1794       C  0.77110618  0.70854427  0.80204837     0.00350
C1795       C  0.79961779  0.69196933  0.80531144    -0.08230
C1796       C  0.80030760  0.66567645  0.82485532    -0.05600
C1797       C  0.77555097  0.65863027  0.84503534     0.00330
C1798       C  0.74983905  0.67925870  0.84594629    -0.08130
C1799       C  0.72628685  0.68126153  0.87225226     0.62240
H1800       H  0.72445190  0.71279215  0.82053414     0.12940
H1801       H  0.82058951  0.65083406  0.82461171     0.12950
C1802       C  0.82990863  0.70155014  0.78996992     0.62480
F1803       F  0.72251711  0.71190327  0.88084674    -0.22690
F1804       F  0.73573546  0.66543606  0.89836191    -0.20020
F1805       F  0.69786912  0.67001476  0.86252981    -0.19700
F1806       F  0.83085321  0.73302546  0.78427812    -0.19750
F1807       F  0.83385573  0.68544251  0.76255010    -0.20070
F1808       F  0.85469098  0.69479889  0.80921824    -0.22740
C1809       C  0.68267480  0.79093408  0.78327862    -0.05580
C1810       C  0.71183176  0.80370348  0.77585017     0.00350
C1811       C  0.71573972  0.83620879  0.77572215    -0.08230
C1812       C  0.68953638  0.85488020  0.78050176    -0.05600
C1813       C  0.66008957  0.84209953  0.78603286     0.00330
C1814       C  0.65648699  0.80972952  0.78826451    -0.08130
C1815       C  0.62496437  0.79528174  0.79452970     0.62240
H1816       H  0.68031576  0.76598054  0.78375167     0.12940
H1817       H  0.69162365  0.87979912  0.77841288     0.12950
C1818       C  0.74669104  0.85169722  0.76908692     0.62480
F1819       F  0.62650541  0.76328855  0.79533782    -0.22690
F1820       F  0.60432192  0.80372693  0.77151370    -0.20020
F1821       F  0.61378185  0.80536437  0.82286562    -0.19700
F1822       F  0.75034077  0.85546860  0.73744633    -0.19750
F1823       F  0.77112358  0.83439090  0.78057540    -0.20070
F1824       F  0.74799572  0.88056662  0.78291290    -0.22740
loop_ 
_geom_bond_atom_site_label_1 
_geom_bond_atom_site_label_2 
_geom_bond_distance 
_geom_bond_site_symmetry_2 
_ccdc_geom_bond_type 
C1            C2   1.409       .  A
C1            C6   1.410       .  A
C1         C1794   1.505       .  S
C2            C3   1.396       .  A
C2            H7   1.083       .  S
C3            C4   1.398       .  A
C3         C1810   1.478       .  S
C4            C5   1.399       .  A
C4            H8   1.080       .  S
C5            C6   1.409       .  A
C5         C1778   1.481       .  S
C6            H9   1.079       .  S
C10          C11   1.408       .  A
C10          C15   1.398       .  A
C10        C1765   1.478       .  S
C11          C12   1.411       .  A
C11          H16   1.076       .  S
C12          C13   1.413       .  A
C12        C1730   1.510       .  S
C13          C14   1.397       .  A
C13          H17   1.083       .  S
C14          C15   1.399       .  A
C14        C1746   1.481       .  S
C15          H18   1.084       .  S
C19          C20   1.400       .  A
C19          C24   1.400       .  A
C19        C1717   1.476       .  S
C20          C21   1.407       .  A
C20          H25   1.084       .  S
C21          C22   1.405       .  A
C21        C1698   1.490       .  S
C22          C23   1.404       .  A
C22          H26   1.080       .  S
C23          C24   1.399       .  A
C23        C1682   1.476       .  S
C24          H27   1.084       .  S
C28          C29   1.400       .  A
C28          C33   1.408       .  A
C28        C1669   1.480       .  S
C29          C30   1.401       .  A
C29          H34   1.080       .  S
C30          C31   1.398       .  A
C30        C1650   1.480       .  S
C31          C32   1.406       .  A
C31          H35   1.080       .  S
C32          C33   1.405       .  A
C32        C1634   1.496       .  S
C33          H36   1.083       .  S
C37          C38   1.402       .  A
C37          C42   1.405       .  A
C37        C1605   1.485       .  S
C38          C39   1.404       .  A
C38          H43   1.081       .  S
C39          C40   1.402       .  A
C39        C1618   1.478       .  S
C40          C41   1.402       .  A
C40          H44   1.084       .  S
C41          C42   1.398       .  A
C41        C1586   1.476       .  S
C42          H45   1.084       .  S
C46          C47   1.393       .  A
C46          C51   1.410       .  A
C46        C1538   1.471       .  S
C47          C48   1.390       .  A
C47          H52   1.084       .  S
C48          C49   1.393       .  A
C48        C1570   1.469       .  S
C49          C50   1.417       .  A
C49          H53   1.082       .  S
C50          C51   1.412       .  A
C50        C1554   1.513       .  S
C51          H54   1.074       .  S
C55          C56   1.410       .  A
C55          C60   1.426       .  A
C55        C1490   1.524       .  S
C56          C57   1.395       .  A
C56          H61   1.057       .  S
C57          C58   1.384       .  A
C57        C1522   1.475       .  S
C58          C59   1.406       .  A
C58          H62   1.082       .  S
C59          C60   1.414       .  A
C59        C1506   1.510       .  S
C60          H63   1.077       .  S
O64         Mg66   2.148       .  S
O64         Mg72   2.162       .  S
O64          C99   1.240       .  S
C65         H104   1.081       .  S
C65          O78   1.237       .  S
C65         O102   1.271       .  A
Mg66         O95   2.134   1_655  S
Mg66        O110   2.283       .  S
Mg66        O106   2.256   1_545  S
Mg66         O77   2.295   1_545  S
O67        Mg109   2.153   1_556  S
O67         Mg92   2.133       .  S
O67          C88   1.240       .  S
O68          C99   1.274   1_556  A
O68         Mg92   2.302   1_655  S
C69        C1410   1.487       .  S
C69          O71   1.272       .  A
C69          O83   1.273       .  A
O70          C98   1.270       .  A
O70         Mg72   2.297   1_455  S
O71        Mg103   2.270   1_565  S
Mg72         O78   2.125   1_655  S
Mg72         O86   2.274       .  S
Mg72         O74   2.343       .  S
C73        C1394   1.502       .  S
C73         O111   1.265       .  A
C73          O79   1.281   1_565  A
O74          C81   1.279   1_554  A
H75          C88   1.081       .  S
C76         H101   1.081       .  S
C76          O90   1.237       .  S
C76          O91   1.270       .  A
O77         C100   1.272   1_655  A
O78         Mg92   2.133   1_554  S
O79        Mg109   2.347   1_556  S
C80        C1442   1.501       .  S
C80          O93   1.276       .  A
C80          O85   1.270       .  A
C81        C1426   1.498       .  S
C81         O108   1.271       .  A
Mg82         O89   2.132       .  S
Mg82         O90   2.125   1_565  S
Mg82         O83   2.285       .  S
Mg82         O84   2.300   1_564  S
Mg82        O111   2.232   1_554  S
O84          C88   1.274       .  A
O85         Mg92   2.285       .  S
O86         C105   1.274       .  A
O87         C107   1.278   1_455  A
O87        Mg103   2.338   1_565  S
O89        Mg103   2.148   1_565  S
O89         C100   1.239       .  S
O90        Mg109   2.124       .  S
O91        Mg103   2.301       .  S
Mg92        O108   2.249   1_455  S
O93        Mg109   2.284   1_556  S
H94          C99   1.081       .  S
O95        Mg103   2.122       .  S
O95          C98   1.236       .  S
H96          C98   1.081       .  S
H97         C100   1.081       .  S
O102       Mg109   2.303       .  S
C105       C1477   1.470       .  S
C105        O110   1.272       .  A
O106        C107   1.271       .  A
C107       C1461   1.487       .  S
C112        C113   1.408       .  A
C112        C117   1.411       .  A
C112       C1378   1.495       .  S
C113        C114   1.406       .  A
C113        H118   1.084       .  S
C114        C115   1.396       .  A
C114       C1445   1.488       .  S
C115        C116   1.399       .  A
C115        H119   1.082       .  S
C116        C117   1.409       .  A
C116       C1362   1.480       .  S
C117        H120   1.082       .  S
C121        C122   1.407       .  A
C121        C126   1.408       .  A
C121       C1349   1.486       .  S
C122        C123   1.404       .  A
C122        H127   1.083       .  S
C123        C124   1.397       .  A
C123       C1602   1.474       .  S
C124        C125   1.395       .  A
C124        H128   1.085       .  S
C125        C126   1.404       .  A
C125       C1474   1.477       .  S
C126        H129   1.084       .  S
C130        C131   1.412       .  A
C130        C135   1.403       .  A
C130       C1330   1.485       .  S
C131        C132   1.416       .  A
C131        H136   1.082       .  S
C132        C133   1.405       .  A
C132       C1733   1.505       .  S
C133        C134   1.395       .  A
C133        H137   1.080       .  S
C134        C135   1.397       .  A
C134       C1413   1.480       .  S
C135        H138   1.083       .  S
O139       Mg141   2.141       .  S
O139       Mg147   2.143       .  S
O139        C174   1.240   1_655  S
C140        H179   1.081       .  S
C140        O153   1.236       .  S
C140        O177   1.270       .  A
Mg141       O170   2.134       .  S
Mg141       O185   2.303       .  S
Mg141       O181   2.232       .  S
Mg141       O152   2.298       .  S
O142       Mg184   2.149       .  S
O142       Mg167   2.138       .  S
O142        C163   1.240       .  S
O143        C174   1.274       .  A
O143       Mg167   2.308       .  S
C144       C1250   1.470       .  S
C144        O146   1.275       .  A
C144        O158   1.272       .  A
O145        C173   1.271       .  A
O145       Mg147   2.308       .  S
O146       Mg178   2.286       .  S
Mg147       O153   2.121       .  S
Mg147       O161   2.264       .  S
Mg147       O149   2.338   1_655  S
C148       C1234   1.509       .  S
C148        O186   1.273       .  A
C148        O154   1.278       .  A
O149        C156   1.277       .  A
H150        C163   1.081       .  S
C151        H176   1.081       .  S
C151        O165   1.237       .  S
C151        O166   1.269       .  A
O152        C175   1.272       .  A
O153       Mg167   2.127   1_655  S
O154       Mg184   2.343       .  S
C155       C1282   1.473       .  S
C155        O168   1.273       .  A
C155        O160   1.273       .  A
C156       C1266   1.499       .  S
C156        O183   1.271       .  A
Mg157       O164   2.140   1_455  S
Mg157       O165   2.122   1_455  S
Mg157       O158   2.276   1_455  S
Mg157       O159   2.297       .  S
Mg157       O186   2.252       .  S
O159        C163   1.273       .  A
O160       Mg167   2.301       .  S
O161        C180   1.271       .  A
O162        C182   1.278       .  A
O162       Mg178   2.338       .  S
O164       Mg178   2.156       .  S
O164        C175   1.239       .  S
O165       Mg184   2.109   1_655  S
O166       Mg178   2.294       .  S
Mg167       O183   2.246       .  S
O168       Mg184   2.273       .  S
H169        C174   1.081       .  S
O170       Mg178   2.140       .  S
O170        C173   1.236       .  S
H171        C173   1.081       .  S
H172        C175   1.081       .  S
O177       Mg184   2.295   1_655  S
C180       C1314   1.484       .  S
C180        O185   1.274       .  A
O181        C182   1.271       .  A
C182       C1298   1.492       .  S
C187        C188   1.410       .  A
C187        C192   1.410       .  A
C187       C1218   1.494       .  S
C188        C189   1.403       .  A
C188        H193   1.083       .  S
C189        C190   1.398       .  A
C189       C1621   1.476       .  S
C190        C191   1.395       .  A
C190        H194   1.085       .  S
C191        C192   1.403       .  A
C191       C1317   1.477       .  S
C192        H195   1.082       .  S
C196        C197   1.407       .  A
C196        C201   1.410       .  A
C196       C1202   1.497       .  S
C197        C198   1.405       .  A
C197        H202   1.080       .  S
C198        C199   1.397       .  A
C198       C1749   1.471       .  S
C199        C200   1.394       .  A
C199        H203   1.079       .  S
C200        C201   1.407       .  A
C200       C1285   1.492       .  S
C201        H204   1.083       .  S
C205        C206   1.405       .  A
C205        C210   1.409       .  A
C205       C1186   1.487       .  S
C206        C207   1.404       .  A
C206        H211   1.083       .  S
C207        C208   1.397       .  A
C207       C1781   1.476       .  S
C208        C209   1.403       .  A
C208        H212   1.084       .  S
C209        C210   1.411       .  A
C209       C1253   1.500       .  S
C210        H213   1.077       .  S
O214       Mg216   2.106   1_565  S
O214       Mg222   2.119       .  S
O214        C249   1.237       .  S
C215        H254   1.081       .  S
C215        O228   1.239       .  S
C215        O252   1.275   1_455  A
Mg216       O245   2.145       .  S
Mg216       O260   2.275       .  S
Mg216       O256   2.215       .  S
Mg216       O227   2.284   1_545  S
O217       Mg259   2.134   1_455  S
O217       Mg242   2.112       .  S
O217        C238   1.237       .  S
O218        C249   1.272       .  A
O218       Mg242   2.314       .  S
C219       C1346   1.496   1_455  S
C219        O221   1.274       .  A
C219        O233   1.274   1_455  A
O220        C248   1.277       .  A
O220       Mg222   2.317   1_545  S
O221       Mg253   2.295       .  S
Mg222       O228   2.171       .  S
Mg222       O236   2.298       .  S
Mg222       O224   2.365       .  S
C223       C1122   1.484       .  S
C223        O261   1.267       .  A
C223        O229   1.279       .  A
O224        C231   1.278       .  A
H225        C238   1.081       .  S
C226        H251   1.081       .  S
C226        O240   1.239   1_545  S
C226        O241   1.274       .  A
O227        C250   1.267       .  A
O228       Mg242   2.110       .  S
O229       Mg259   2.350       .  S
C230       C1189   1.495       .  S
C230        O243   1.277       .  A
C230        O235   1.271       .  A
C231       C1138   1.495       .  S
C231        O258   1.258       .  A
Mg232       O239   2.101   1_565  S
Mg232       O240   2.134   1_455  S
Mg232       O233   2.291   1_465  S
Mg232       O234   2.299       .  S
Mg232       O261   2.200   1_455  S
O234        C238   1.271       .  A
O235       Mg242   2.290   1_655  S
O236        C255   1.274   1_565  A
O237        C257   1.277       .  A
O237       Mg253   2.339       .  S
O239       Mg253   2.134       .  S
O239        C250   1.234   1_545  S
O240       Mg259   2.162       .  S
O241       Mg253   2.309   1_655  S
Mg242       O258   2.223       .  S
O243       Mg259   2.305       .  S
H244        C249   1.081       .  S
O245       Mg253   2.157       .  S
O245        C248   1.242       .  S
H246        C248   1.081       .  S
H247        C250   1.081       .  S
O252       Mg259   2.321       .  S
C255       C1154   1.493       .  S
C255        O260   1.272       .  A
O256        C257   1.267       .  A
C257       C1173   1.468       .  S
C262        C263   1.404       .  A
C262        C267   1.401       .  A
C262       C1237   1.491       .  S
C263        C264   1.408       .  A
C263        H268   1.082       .  S
C264        C265   1.403       .  A
C264       C1493   1.485       .  S
C265        C266   1.402       .  A
C265        H269   1.082       .  S
C266        C267   1.409       .  A
C266       C1141   1.493       .  S
C267        H270   1.084       .  S
C271        C272   1.404       .  A
C271        C276   1.411       .  A
C271       C1106   1.483       .  S
C272        C273   1.402       .  A
C272        H277   1.084       .  S
C273        C274   1.397       .  A
C273       C1653   1.468       .  S
C274        C275   1.393       .  A
C274        H278   1.085       .  S
C275        C276   1.406       .  A
C275       C1170   1.477       .  S
C276        H279   1.084       .  S
C280        C281   1.409       .  A
C280        C285   1.409       .  A
C280       C1458   1.492       .  S
C281        C282   1.407       .  A
C281        H286   1.082       .  S
C282        C283   1.398       .  A
C282       C1701   1.476       .  S
C283        C284   1.395       .  A
C283        H287   1.085       .  S
C284        C285   1.404       .  A
C284       C1125   1.484       .  S
C285        H288   1.083       .  S
O289       Mg291   2.148   1_556  S
O289       Mg297   2.156       .  S
O289        C324   1.240       .  S
C290        H329   1.081       .  S
C290        O303   1.236       .  S
C290        O327   1.270       .  A
Mg291       O320   2.121   1_554  S
Mg291       O335   2.295   1_554  S
Mg291       O331   2.260       .  S
Mg291       O302   2.302       .  S
O292       Mg334   2.152       .  S
O292       Mg317   2.132       .  S
O292        C313   1.240   1_556  S
O293        C324   1.274       .  A
O293       Mg317   2.302       .  S
C294       C1061   1.475       .  S
C294        O296   1.275       .  A
C294        O308   1.272       .  A
O295        C323   1.270       .  A
O295       Mg297   2.299       .  S
O296       Mg328   2.282       .  S
Mg297       O303   2.126       .  S
Mg297       O311   2.262       .  S
Mg297       O299   2.331       .  S
C298       C1045   1.492       .  S
C298        O336   1.269       .  A
C298        O304   1.279       .  A
O299        C306   1.277       .  A
H300        C313   1.081       .  S
C301        H326   1.081       .  S
C301        O315   1.235   1_556  S
C301        O316   1.270       .  A
O302        C325   1.274       .  A
O303       Mg317   2.132       .  S
O304       Mg334   2.333   1_554  S
C305       C1090   1.490       .  S
C305        O318   1.274       .  A
C305        O310   1.274       .  A
C306       C1074   1.483       .  S
C306        O333   1.267       .  A
Mg307       O314   2.147       .  S
Mg307       O315   2.132       .  S
Mg307       O308   2.293       .  S
Mg307       O309   2.300       .  S
Mg307       O336   2.248       .  S
O309        C313   1.274       .  A
O310       Mg317   2.296       .  S
O311        C330   1.270       .  A
O312        C332   1.281       .  A
O312       Mg328   2.355       .  S
O314       Mg328   2.152       .  S
O314        C325   1.240       .  S
O315       Mg334   2.121   1_554  S
O316       Mg328   2.291   1_556  S
Mg317       O333   2.230       .  S
O318       Mg334   2.283       .  S
H319        C324   1.081       .  S
O320       Mg328   2.117   1_556  S
O320        C323   1.236       .  S
H321        C323   1.081       .  S
H322        C325   1.081       .  S
O327       Mg334   2.301       .  S
C330       C1026   1.488       .  S
C330        O335   1.276       .  A
O331        C332   1.272       .  A
C332       C1013   1.487       .  S
C337        C338   1.412       .  A
C337        C342   1.410       .  A
C337        C994   1.498       .  S
C338        C339   1.407       .  A
C338        H343   1.083       .  S
C339        C340   1.394       .  A
C339       C1093   1.480       .  S
C340        C341   1.395       .  A
C340        H344   1.085       .  S
C341        C342   1.405       .  A
C341        C978   1.477       .  S
C342        H345   1.081       .  S
C346        C347   1.408       .  A
C346        C351   1.405       .  A
C346        C962   1.485       .  S
C347        C348   1.410       .  A
C347        H352   1.083       .  S
C348        C349   1.401       .  A
C348       C1589   1.483       .  S
C349        C350   1.394       .  A
C349        H353   1.084       .  S
C350        C351   1.403       .  A
C350       C1058   1.475       .  S
C351        H354   1.084       .  S
C355        C356   1.410       .  A
C355        C360   1.415       .  A
C355        C946   1.496       .  S
C356        C357   1.396       .  A
C356        H361   1.083       .  S
C357        C358   1.391       .  A
C357       C1029   1.482       .  S
C358        C359   1.403       .  A
C358        H362   1.081       .  S
C359        C360   1.415       .  A
C359       C1797   1.498       .  S
C360        H363   1.080       .  S
O364       Mg366   2.092   1_455  S
O364       Mg372   2.130       .  S
O364        C399   1.235       .  S
C365        H404   1.081       .  S
C365        O378   1.241       .  S
C365        O402   1.276       .  A
Mg366       O395   2.133   1_554  S
Mg366       O410   2.294   1_654  S
Mg366       O406   2.207   1_554  S
Mg366       O377   2.311       .  S
O367       Mg409   2.126       .  S
O367       Mg392   2.102   1_655  S
O367        C388   1.234       .  S
O368        C399   1.268   1_655  A
O368       Mg392   2.283   1_655  S
C369        C949   1.487       .  S
C369        O371   1.274       .  A
C369        O383   1.269       .  A
O370        C398   1.275   1_554  A
O370       Mg372   2.318       .  S
O371       Mg403   2.308       .  S
Mg372       O378   2.166       .  S
Mg372       O386   2.320       .  S
Mg372       O374   2.342       .  S
C373        C917   1.470       .  S
C373        O411   1.265       .  A
C373        O379   1.279       .  A
O374        C381   1.278       .  A
H375        C388   1.081       .  S
C376        H401   1.081       .  S
C376        O390   1.241       .  S
C376        O391   1.278   1_554  A
O377        C400   1.272       .  A
O378       Mg392   2.143       .  S
O379       Mg409   2.348       .  S
C380       C1205   1.494       .  S
C380        O393   1.276       .  A
C380        O385   1.269       .  A
C381        C930   1.473       .  S
C381        O408   1.266       .  A
Mg382       O389   2.113       .  S
Mg382       O390   2.138       .  S
Mg382       O383   2.278   1_554  S
Mg382       O384   2.291       .  S
Mg382       O411   2.216       .  S
O384        C388   1.267       .  A
O385       Mg392   2.272       .  S
O386        C405   1.278       .  A
O387        C407   1.275       .  A
O387       Mg403   2.330       .  S
O389       Mg403   2.122   1_554  S
O389        C400   1.237       .  S
O390       Mg409   2.165       .  S
O391       Mg403   2.324       .  S
Mg392       O408   2.199       .  S
O393       Mg409   2.312   1_455  S
H394        C399   1.081   1_655  S
O395       Mg403   2.169       .  S
O395        C398   1.239   1_655  S
H396        C398   1.081       .  S
H397        C400   1.081       .  S
O402       Mg409   2.316   1_455  S
C405       C1381   1.508   1_554  S
C405        O410   1.271   1_554  A
O406        C407   1.263       .  A
C407        C898   1.464       .  S
C412        C413   1.417       .  A
C412        C417   1.414       .  A
C412       C1010   1.509       .  S
C413        C414   1.413       .  A
C413        H418   1.077       .  S
C414        C415   1.399       .  A
C414       C1685   1.487       .  S
C415        C416   1.389       .  A
C415        H419   1.084       .  S
C416        C417   1.400       .  A
C416        C914   1.474       .  S
C417        H420   1.083       .  S
C421        C422   1.410       .  A
C421        C426   1.407       .  A
C421       C1269   1.491       .  S
C422        C423   1.406       .  A
C422        H427   1.082       .  S
C423        C424   1.396       .  A
C423       C1666   1.476       .  S
C424        C425   1.393       .  A
C424        H428   1.085       .  S
C425        C426   1.403       .  A
C425        C933   1.475       .  S
C426        H429   1.083       .  S
C430        C431   1.403       .  A
C430        C435   1.407       .  A
C430       C1429   1.482       .  S
C431        C432   1.405       .  A
C431        H436   1.083       .  S
C432        C433   1.400       .  A
C432        C901   1.492       .  S
C433        C434   1.406       .  A
C433        H437   1.083       .  S
C434        C435   1.409       .  A
C434       C1557   1.494       .  S
C435        H438   1.083       .  S
O439       Mg441   2.094   1_554  S
O439       Mg447   2.130       .  S
O439        C474   1.234       .  S
C440        H479   1.081       .  S
C440        O453   1.242       .  S
C440        O477   1.278       .  A
Mg441       O470   2.133   1_546  S
Mg441       O485   2.273   1_546  S
Mg441       O481   2.206   1_545  S
Mg441       O452   2.293       .  S
O442       Mg484   2.112       .  S
O442       Mg467   2.087   1_556  S
O442        C463   1.233       .  S
O443        C474   1.268       .  A
O443       Mg467   2.286       .  S
C444        C850   1.477       .  S
C444        O446   1.272       .  A
C444        O458   1.270       .  A
O445        C473   1.276   1_545  A
O445       Mg447   2.310       .  S
O446       Mg478   2.287       .  S
Mg447       O453   2.165       .  S
Mg447       O461   2.310       .  S
Mg447       O449   2.346       .  S
C448        C866   1.479       .  S
C448        O486   1.258       .  A
C448        O454   1.281       .  A
O449        C456   1.278       .  A
H450        C463   1.081       .  S
C451        H476   1.081       .  S
C451        O465   1.241       .  S
C451        O466   1.277   1_545  A
O452        C475   1.269       .  A
O453       Mg467   2.136       .  S
O454       Mg484   2.382       .  S
C455        C965   1.496       .  S
C455        O468   1.279       .  A
C455        O460   1.270       .  A
C456        C882   1.478       .  S
C456        O483   1.268       .  A
Mg457       O464   2.096       .  S
Mg457       O465   2.115       .  S
Mg457       O458   2.285   1_545  S
Mg457       O459   2.305       .  S
Mg457       O486   2.208       .  S
O459        C463   1.267       .  A
O460       Mg467   2.276       .  S
O461        C480   1.277       .  A
O462        C482   1.277       .  A
O462       Mg478   2.342       .  S
O464       Mg478   2.121   1_545  S
O464        C475   1.235       .  S
O465       Mg484   2.182       .  S
O466       Mg478   2.327       .  S
Mg467       O483   2.212       .  S
O468       Mg484   2.324   1_554  S
H469        C474   1.081   1_556  S
O470       Mg478   2.147   1_554  S
O470        C473   1.241       .  S
H471        C473   1.081       .  S
H472        C475   1.081       .  S
O477       Mg484   2.321   1_554  S
C480       C1333   1.494   1_545  S
C480        O485   1.269   1_545  A
O481        C482   1.267       .  A
C482        C837   1.482       .  S
C487        C488   1.403       .  A
C487        C492   1.401       .  A
C487        C821   1.482       .  S
C488        C489   1.403       .  A
C488        H493   1.084       .  S
C489        C490   1.398       .  A
C489       C1541   1.466       .  S
C490        C491   1.395       .  A
C490        H494   1.078       .  S
C491        C492   1.411       .  A
C491        C869   1.494       .  S
C492        H495   1.084       .  S
C496        C497   1.414       .  A
C496        C501   1.404       .  A
C496       C1042   1.489       .  S
C497        C498   1.415       .  A
C497        H502   1.075       .  S
C498        C499   1.409       .  A
C498       C1637   1.510       .  S
C499        C500   1.390       .  A
C499        H503   1.082       .  S
C500        C501   1.395       .  A
C500        C885   1.479       .  S
C501        H504   1.083       .  S
C505        C506   1.412       .  A
C505        C510   1.402       .  A
C505       C1397   1.482       .  S
C506        C507   1.412       .  A
C506        H511   1.082       .  S
C507        C508   1.404       .  A
C507       C1509   1.499       .  S
C508        C509   1.394       .  A
C508        H512   1.080       .  S
C509        C510   1.396       .  A
C509        C834   1.481       .  S
C510        H513   1.082       .  S
O514       Mg516   2.103       .  S
O514       Mg522   2.129       .  S
O514        C549   1.235       .  S
C515        H554   1.081       .  S
C515        O528   1.241       .  S
C515        O552   1.276       .  A
Mg516       O545   2.136       .  S
Mg516       O560   2.291       .  S
Mg516       O556   2.222       .  S
Mg516       O527   2.297       .  S
O517       Mg559   2.131       .  S
O517       Mg542   2.120       .  S
O517        C538   1.236       .  S
O518        C549   1.267       .  A
O518       Mg542   2.285       .  S
C519        C770   1.487       .  S
C519        O521   1.275       .  A
C519        O533   1.273       .  A
O520        C548   1.275       .  A
O520       Mg522   2.316       .  S
O521       Mg553   2.311       .  S
Mg522       O528   2.161       .  S
Mg522       O536   2.320       .  S
Mg522       O524   2.351       .  S
C523        C786   1.468       .  S
C523        O561   1.266       .  A
C523        O529   1.276       .  A
O524        C531   1.281       .  A
H525        C538   1.081       .  S
C526        H551   1.081       .  S
C526        O540   1.240       .  S
C526        O541   1.276       .  A
O527        C550   1.271       .  A
O528       Mg542   2.148       .  S
O529       Mg559   2.329       .  S
C530       C1221   1.477       .  S
C530        O543   1.273       .  A
C530        O535   1.270       .  A
C531        C802   1.476       .  S
C531        O558   1.266       .  A
Mg532       O539   2.110       .  S
Mg532       O540   2.138       .  S
Mg532       O533   2.305       .  S
Mg532       O534   2.304       .  S
Mg532       O561   2.225       .  S
O534        C538   1.270       .  A
O535       Mg542   2.276       .  S
O536        C555   1.277       .  A
O537        C557   1.276       .  A
O537       Mg553   2.330       .  S
O539       Mg553   2.125       .  S
O539        C550   1.237       .  S
O540       Mg559   2.163       .  S
O541       Mg553   2.318       .  S
Mg542       O558   2.214       .  S
O543       Mg559   2.298       .  S
H544        C549   1.081       .  S
O545       Mg553   2.170       .  S
O545        C548   1.240       .  S
H546        C548   1.081       .  S
H547        C550   1.081       .  S
O552       Mg559   2.315       .  S
C555        C997   1.491       .  S
C555        O560   1.274       .  A
O556        C557   1.265       .  A
C557        C754   1.469       .  S
C562        C563   1.419       .  A
C562        C567   1.418       .  A
C562        C738   1.520       .  S
C563        C564   1.408       .  A
C563        H568   1.075       .  S
C564        C565   1.394       .  A
C564       C1714   1.479       .  S
C565        C566   1.387       .  A
C565        H569   1.085       .  S
C566        C567   1.400       .  A
C566        C789   1.473       .  S
C567        H570   1.080       .  S
C571        C572   1.402       .  A
C571        C576   1.404       .  A
C571       C1077   1.482       .  S
C572        C573   1.402       .  A
C572        H577   1.082       .  S
C573        C574   1.402       .  A
C573       C1525   1.473       .  S
C574        C575   1.396       .  A
C574        H578   1.078       .  S
C575        C576   1.407       .  A
C575        C757   1.492       .  S
C576        H579   1.084       .  S
C580        C581   1.411       .  A
C580        C585   1.410       .  A
C580       C1301   1.495       .  S
C581        C582   1.405       .  A
C581        H586   1.080       .  S
C582        C583   1.398       .  A
C582       C1573   1.474       .  S
C583        C584   1.393       .  A
C583        H587   1.084       .  S
C584        C585   1.404       .  A
C584        C805   1.478       .  S
C585        H588   1.084       .  S
O589       Mg591   2.160       .  S
O589       Mg597   2.163       .  S
O589        C624   1.241   1_565  S
C590        H629   1.081       .  S
C590        O603   1.238       .  S
C590        O627   1.273       .  A
Mg591       O620   2.129       .  S
Mg591       O635   2.292       .  S
Mg591       O631   2.271       .  S
Mg591       O602   2.291       .  S
O592       Mg634   2.148       .  S
O592       Mg617   2.121       .  S
O592        C613   1.240       .  S
O593        C624   1.275       .  A
O593       Mg617   2.309       .  S
C594        C690   1.471       .  S
C594        O596   1.274       .  A
C594        O608   1.269       .  A
O595        C623   1.269       .  A
O595       Mg597   2.296       .  S
O596       Mg628   2.292       .  S
Mg597       O603   2.148       .  S
Mg597       O611   2.285       .  S
Mg597       O599   2.363   1_565  S
C598        C818   1.496       .  S
C598        O636   1.265       .  A
C598        O604   1.281       .  A
O599        C606   1.279       .  A
H600        C613   1.081       .  S
C601        H626   1.081       .  S
C601        O615   1.236       .  S
C601        O616   1.268       .  A
O602        C625   1.272       .  A
O603       Mg617   2.130   1_565  S
O604       Mg634   2.350       .  S
C605        C706   1.502       .  S
C605        O618   1.273       .  A
C605        O610   1.272       .  A
C606       C1109   1.498       .  S
C606        O633   1.270       .  A
Mg607       O614   2.129   1_545  S
Mg607       O615   2.129   1_545  S
Mg607       O608   2.266   1_545  S
Mg607       O609   2.296       .  S
Mg607       O636   2.229       .  S
O609        C613   1.273       .  A
O610       Mg617   2.301       .  S
O611        C630   1.278       .  A
O612        C632   1.277       .  A
O612       Mg628   2.319       .  S
O614       Mg628   2.153       .  S
O614        C625   1.239       .  S
O615       Mg634   2.103   1_565  S
O616       Mg628   2.275       .  S
Mg617       O633   2.223       .  S
O618       Mg634   2.274       .  S
H619        C624   1.081       .  S
O620       Mg628   2.119       .  S
O620        C623   1.235       .  S
H621        C623   1.081       .  S
H622        C625   1.081       .  S
O627       Mg634   2.319   1_565  S
C630        C722   1.495       .  S
C630        O635   1.272       .  A
O631        C632   1.274       .  A
C632        C741   1.475       .  S
C637        C638   1.416       .  A
C637        C642   1.414       .  A
C637        C773   1.505       .  S
C638        C639   1.407       .  A
C638        H643   1.083       .  S
C639        C640   1.394       .  A
C639       C1762   1.477       .  S
C640        C641   1.392       .  A
C640        H644   1.083       .  S
C641        C642   1.408       .  A
C641        C725   1.485       .  S
C642        H645   1.082       .  S
C646        C647   1.400       .  A
C646        C651   1.409       .  A
C646       C1157   1.483       .  S
C647        C648   1.399       .  A
C647        H652   1.084       .  S
C648        C649   1.396       .  A
C648        C709   1.495       .  S
C649        C650   1.419       .  A
C649        H653   1.078       .  S
C650        C651   1.414       .  A
C650        C674   1.519       .  S
C651        H654   1.073       .  S
C655        C656   1.408       .  A
C655        C660   1.407       .  A
C655        C853   1.492       .  S
C656        C657   1.403       .  A
C656        H661   1.083       .  S
C657        C658   1.396       .  A
C657       C1813   1.471       .  S
C658        C659   1.395       .  A
C658        H662   1.082       .  S
C659        C660   1.408       .  A
C659        C693   1.488       .  S
C660        H663   1.083       .  S
C664        C665   1.408       .  A
C664        C669   1.410       .  A
C664        C981   1.502       .  S
C665        C666   1.402       .  A
C665        H670   1.084       .  S
C666        C667   1.405       .  A
C666       C1365   1.489       .  S
C667        C668   1.407       .  A
C667        H671   1.082       .  S
C668        C669   1.415       .  A
C668        C677   1.502       .  S
C669        H672   1.080       .  S
C673        C674   1.408       .  A
C673        C678   1.389       .  A
C673        H680   1.082       .  S
C674        C675   1.435       .  A
C675        C676   1.422       .  A
C675        C682   1.518       .  S
C676        C677   1.410       .  A
C676        H681   1.082       .  S
C677        C678   1.409       .  A
C678        C679   1.511       .  S
C679        F683   1.385       .  S
C679        F684   1.377       .  S
C679        F685   1.379       .  S
C682        F686   1.383       .  S
C682        F687   1.382       .  S
C682        F688   1.385       .  S
C689        C690   1.398       .  A
C689        C694   1.409       .  A
C689        H696   1.084       .  S
C690        C691   1.416       .  A
C691        C692   1.397       .  A
C691        C698   1.516       .  S
C692        C693   1.401       .  A
C692        H697   1.082       .  S
C693        C694   1.427       .  A
C694        C695   1.520       .  S
C695        F699   1.384       .  S
C695        F700   1.383       .  S
C695        F701   1.382       .  S
C698        F702   1.381       .  S
C698        F703   1.381       .  S
C698        F704   1.385       .  S
C705        C706   1.411       .  A
C705        C710   1.411       .  A
C705        H712   1.084       .  S
C706        C707   1.425       .  A
C707        C708   1.403       .  A
C707        C714   1.517       .  S
C708        C709   1.402       .  A
C708        H713   1.080       .  S
C709        C710   1.420       .  A
C710        C711   1.518       .  S
C711        F715   1.384       .  S
C711        F716   1.382       .  S
C711        F717   1.383       .  S
C714        F718   1.384       .  S
C714        F719   1.384       .  S
C714        F720   1.383       .  S
C721        C722   1.407       .  A
C721        C726   1.405       .  A
C721        H728   1.082       .  S
C722        C723   1.427       .  A
C723        C724   1.409       .  A
C723        C730   1.520       .  S
C724        C725   1.400       .  A
C724        H729   1.083       .  S
C725        C726   1.420       .  A
C726        C727   1.524       .  S
C727        F731   1.385       .  S
C727        F732   1.383       .  S
C727        F733   1.381       .  S
C730        F734   1.379       .  S
C730        F735   1.383       .  S
C730        F736   1.385       .  S
C737        C738   1.417       .  A
C737        C742   1.403       .  A
C737        H744   1.077       .  S
C738        C739   1.434       .  A
C739        C740   1.413       .  A
C739        C746   1.519       .  S
C740        C741   1.399       .  A
C740        H745   1.084       .  S
C741        C742   1.407       .  A
C742        C743   1.521       .  S
C743        F747   1.384       .  S
C743        F748   1.380       .  S
C743        F749   1.384       .  S
C746        F750   1.383       .  S
C746        F751   1.382       .  S
C746        F752   1.385       .  S
C753        C754   1.396       .  A
C753        C758   1.409       .  A
C753        H760   1.083       .  S
C754        C755   1.417       .  A
C755        C756   1.398       .  A
C755        C762   1.521       .  S
C756        C757   1.402       .  A
C756        H761   1.083       .  S
C757        C758   1.429       .  A
C758        C759   1.521       .  S
C759        F763   1.385       .  S
C759        F764   1.381       .  S
C759        F765   1.381       .  S
C762        F766   1.380       .  S
C762        F767   1.382       .  S
C762        F768   1.385       .  S
C769        C770   1.402       .  A
C769        C774   1.411       .  A
C769        H776   1.084       .  S
C770        C771   1.415       .  A
C771        C772   1.411       .  A
C771        C778   1.518       .  S
C772        C773   1.409       .  A
C772        H777   1.082       .  S
C773        C774   1.426       .  A
C774        C775   1.519       .  S
C775        F779   1.384       .  S
C775        F780   1.382       .  S
C775        F781   1.383       .  S
C778        F782   1.384       .  S
C778        F783   1.382       .  S
C778        F784   1.385       .  S
C785        C786   1.405       .  A
C785        C790   1.406       .  A
C785        H792   1.084       .  S
C786        C787   1.414       .  A
C787        C788   1.403       .  A
C787        C794   1.518       .  S
C788        C789   1.402       .  A
C788        H793   1.084       .  S
C789        C790   1.411       .  A
C790        C791   1.516       .  S
C791        F795   1.385       .  S
C791        F796   1.382       .  S
C791        F797   1.383       .  S
C794        F798   1.382       .  S
C794        F799   1.383       .  S
C794        F800   1.385       .  S
C801        C802   1.403       .  A
C801        C806   1.408       .  A
C801        H808   1.083       .  S
C802        C803   1.420       .  A
C803        C804   1.404       .  A
C803        C810   1.520       .  S
C804        C805   1.400       .  A
C804        H809   1.084       .  S
C805        C806   1.417       .  A
C806        C807   1.520       .  S
C807        F811   1.385       .  S
C807        F812   1.383       .  S
C807        F813   1.382       .  S
C810        F814   1.382       .  S
C810        F815   1.383       .  S
C810        F816   1.385       .  S
C817        C818   1.407       .  A
C817        C822   1.409       .  A
C817        H824   1.082       .  S
C818        C819   1.431       .  A
C819        C820   1.407       .  A
C819        C826   1.523       .  S
C820        C821   1.396       .  A
C820        H825   1.083       .  S
C821        C822   1.416       .  A
C822        C823   1.518       .  S
C823        F827   1.384       .  S
C823        F828   1.383       .  S
C823        F829   1.381       .  S
C826        F830   1.384       .  S
C826        F831   1.383       .  S
C826        F832   1.385       .  S
C833        C834   1.404       .  A
C833        C838   1.409       .  A
C833        H840   1.083       .  S
C834        C835   1.421       .  A
C835        C836   1.400       .  A
C835        C842   1.525       .  S
C836        C837   1.404       .  A
C836        H841   1.083       .  S
C837        C838   1.420       .  A
C838        C839   1.517       .  S
C839        F843   1.385       .  S
C839        F844   1.383       .  S
C839        F845   1.380       .  S
C842        F846   1.381       .  S
C842        F847   1.381       .  S
C842        F848   1.385       .  S
C849        C850   1.399       .  A
C849        C854   1.406       .  A
C849        H856   1.085       .  S
C850        C851   1.416       .  A
C851        C852   1.408       .  A
C851        C858   1.518       .  S
C852        C853   1.406       .  A
C852        H857   1.083       .  S
C853        C854   1.425       .  A
C854        C855   1.520       .  S
C855        F859   1.384       .  S
C855        F860   1.383       .  S
C855        F861   1.383       .  S
C858        F862   1.384       .  S
C858        F863   1.382       .  S
C858        F864   1.385       .  S
C865        C866   1.400       .  A
C865        C870   1.412       .  A
C865        H872   1.084       .  S
C866        C867   1.426       .  A
C867        C868   1.395       .  A
C867        C874   1.525       .  S
C868        C869   1.398       .  A
C868        H873   1.081       .  S
C869        C870   1.430       .  A
C870        C871   1.521       .  S
C871        F875   1.385       .  S
C871        F876   1.382       .  S
C871        F877   1.383       .  S
C874        F878   1.372       .  S
C874        F879   1.381       .  S
C874        F880   1.385       .  S
C881        C882   1.404       .  A
C881        C886   1.403       .  A
C881        H888   1.084       .  S
C882        C883   1.419       .  A
C883        C884   1.406       .  A
C883        C890   1.516       .  S
C884        C885   1.402       .  A
C884        H889   1.083       .  S
C885        C886   1.418       .  A
C886        C887   1.521       .  S
C887        F891   1.385       .  S
C887        F892   1.383       .  S
C887        F893   1.381       .  S
C890        F894   1.383       .  S
C890        F895   1.378       .  S
C890        F896   1.385       .  S
C897        C898   1.404       .  A
C897        C902   1.403       .  A
C897        H904   1.085   1_556  S
C898        C899   1.402       .  A
C899        C900   1.402       .  A
C899        C906   1.517       .  S
C900        C901   1.412       .  A
C900        H905   1.071       .  S
C901        C902   1.418       .  A
C902        C903   1.518   1_556  S
C903        F907   1.384       .  S
C903        F908   1.383       .  S
C903        F909   1.382       .  S
C906        F910   1.383       .  S
C906        F911   1.383       .  S
C906        F912   1.384       .  S
C913        C914   1.403       .  A
C913        C918   1.405       .  A
C913        H920   1.084       .  S
C914        C915   1.417       .  A
C915        C916   1.405       .  A
C915        C922   1.519       .  S
C916        C917   1.402       .  A
C916        H921   1.085       .  S
C917        C918   1.415       .  A
C918        C919   1.519       .  S
C919        F923   1.385       .  S
C919        F924   1.381       .  S
C919        F925   1.383       .  S
C922        F926   1.380       .  S
C922        F927   1.383       .  S
C922        F928   1.384       .  S
C929        C930   1.404       .  A
C929        C934   1.402       .  A
C929        H936   1.083       .  S
C930        C931   1.416       .  A
C931        C932   1.407       .  A
C931        C938   1.517       .  S
C932        C933   1.403       .  A
C932        H937   1.083       .  S
C933        C934   1.415       .  A
C934        C935   1.521       .  S
C935        F939   1.385       .  S
C935        F940   1.381       .  S
C935        F941   1.381       .  S
C938        F942   1.383       .  S
C938        F943   1.382       .  S
C938        F944   1.385       .  S
C945        C946   1.402       .  A
C945        C950   1.400       .  A
C945        H952   1.080       .  S
C946        C947   1.422       .  A
C947        C948   1.418       .  A
C947        C954   1.518       .  S
C948        C949   1.406       .  A
C948        H953   1.083       .  S
C949        C950   1.419       .  A
C950        C951   1.523       .  S
C951        F955   1.385       .  S
C951        F956   1.379   1_556  S
C951        F957   1.384       .  S
C954        F958   1.381       .  S
C954        F959   1.383       .  S
C954        F960   1.384       .  S
C961        C962   1.397       .  A
C961        C966   1.407       .  A
C961        H968   1.084       .  S
C962        C963   1.415       .  A
C963        C964   1.413       .  A
C963        C970   1.516       .  S
C964        C965   1.408       .  A
C964        H969   1.083       .  S
C965        C966   1.428       .  A
C966        C967   1.521       .  S
C967        F971   1.385       .  S
C967        F972   1.383       .  S
C967        F973   1.382       .  S
C970        F974   1.383       .  S
C970        F975   1.382       .  S
C970        F976   1.384   1_554  S
C977        C978   1.392       .  A
C977        C982   1.404       .  A
C977        H984   1.083       .  S
C978        C979   1.414       .  A
C979        C980   1.408       .  A
C979        C986   1.516       .  S
C980        C981   1.408       .  A
C980        H985   1.083       .  S
C981        C982   1.427       .  A
C982        C983   1.509       .  S
C983        F987   1.385       .  S
C983        F988   1.374       .  S
C983        F989   1.380       .  S
C986        F990   1.383       .  S
C986        F991   1.381       .  S
C986        F992   1.384       .  S
C993        C994   1.409       .  A
C993        C998   1.415       .  A
C993       H1000   1.083       .  S
C994        C995   1.422       .  A
C995        C996   1.409       .  A
C995       C1002   1.522       .  S
C996        C997   1.404       .  A
C996       H1001   1.083       .  S
C997        C998   1.418       .  A
C998        C999   1.517       .  S
C999       F1003   1.385       .  S
C999       F1004   1.384       .  S
C999       F1005   1.382       .  S
C1002      F1006   1.383       .  S
C1002      F1007   1.381       .  S
C1002      F1008   1.385       .  S
C1009      C1010   1.410       .  A
C1009      C1014   1.404       .  A
C1009      H1016   1.082       .  S
C1010      C1011   1.429       .  A
C1011      C1012   1.418       .  A
C1011      C1018   1.519       .  S
C1012      C1013   1.403       .  A
C1012      H1017   1.083       .  S
C1013      C1014   1.413       .  A
C1014      C1015   1.519       .  S
C1015      F1019   1.384       .  S
C1015      F1020   1.379       .  S
C1015      F1021   1.384       .  S
C1018      F1022   1.382       .  S
C1018      F1023   1.383       .  S
C1018      F1024   1.385       .  S
C1025      C1026   1.403       .  A
C1025      C1030   1.402       .  A
C1025      H1032   1.082       .  S
C1026      C1027   1.425       .  A
C1027      C1028   1.409       .  A
C1027      C1034   1.520       .  S
C1028      C1029   1.401       .  A
C1028      H1033   1.083       .  S
C1029      C1030   1.420       .  A
C1030      C1031   1.522       .  S
C1031      F1035   1.385       .  S
C1031      F1036   1.381       .  S
C1031      F1037   1.380       .  S
C1034      F1038   1.383       .  S
C1034      F1039   1.383       .  S
C1034      F1040   1.385       .  S
C1041      C1042   1.402       .  A
C1041      C1046   1.409       .  A
C1041      H1048   1.083       .  S
C1042      C1043   1.421       .  A
C1043      C1044   1.405       .  A
C1043      C1050   1.519       .  S
C1044      C1045   1.404       .  A
C1044      H1049   1.084       .  S
C1045      C1046   1.425       .  A
C1046      C1047   1.520       .  S
C1047      F1051   1.385       .  S
C1047      F1052   1.384       .  S
C1047      F1053   1.383       .  S
C1050      F1054   1.382       .  S
C1050      F1055   1.383       .  S
C1050      F1056   1.384   1_554  S
C1057      C1058   1.398       .  A
C1057      C1062   1.401       .  A
C1057      H1064   1.084       .  S
C1058      C1059   1.420       .  A
C1059      C1060   1.408       .  A
C1059      C1066   1.518       .  S
C1060      C1061   1.402       .  A
C1060      H1065   1.084       .  S
C1061      C1062   1.418       .  A
C1062      C1063   1.516       .  S
C1063      F1067   1.385       .  S
C1063      F1068   1.382       .  S
C1063      F1069   1.378       .  S
C1066      F1070   1.383       .  S
C1066      F1071   1.381       .  S
C1066      F1072   1.384       .  S
C1073      C1074   1.405       .  A
C1073      C1078   1.413       .  A
C1073      H1080   1.083       .  S
C1074      C1075   1.420       .  A
C1075      C1076   1.399       .  A
C1075      C1082   1.517       .  S
C1076      C1077   1.397       .  A
C1076      H1081   1.084       .  S
C1077      C1078   1.418       .  A
C1078      C1079   1.517       .  S
C1079      F1083   1.384       .  S
C1079      F1084   1.381       .  S
C1079      F1085   1.383       .  S
C1082      F1086   1.380       .  S
C1082      F1087   1.384       .  S
C1082      F1088   1.383       .  S
C1089      C1090   1.407       .  A
C1089      C1094   1.407       .  A
C1089      H1096   1.080       .  S
C1090      C1091   1.423       .  A
C1091      C1092   1.410       .  A
C1091      C1098   1.520       .  S
C1092      C1093   1.402       .  A
C1092      H1097   1.083       .  S
C1093      C1094   1.411       .  A
C1094      C1095   1.518       .  S
C1095      F1099   1.384       .  S
C1095      F1100   1.381       .  S
C1095      F1101   1.382       .  S
C1098      F1102   1.383       .  S
C1098      F1103   1.383       .  S
C1098      F1104   1.385       .  S
C1105      C1106   1.408       .  A
C1105      C1110   1.419       .  A
C1105      H1112   1.083       .  S
C1106      C1107   1.412       .  A
C1107      C1108   1.396       .  A
C1107      C1114   1.519       .  S
C1108      C1109   1.405       .  A
C1108      H1113   1.077       .  S
C1109      C1110   1.421       .  A
C1110      C1111   1.516       .  S
C1111      F1115   1.385       .  S
C1111      F1116   1.382   1_545  S
C1111      F1117   1.384       .  S
C1114      F1118   1.381       .  S
C1114      F1119   1.382       .  S
C1114      F1120   1.384       .  S
C1121      C1122   1.404       .  A
C1121      C1126   1.399       .  A
C1121      H1128   1.084       .  S
C1122      C1123   1.418       .  A
C1123      C1124   1.412       .  A
C1123      C1130   1.517       .  S
C1124      C1125   1.406       .  A
C1124      H1129   1.083       .  S
C1125      C1126   1.419       .  A
C1126      C1127   1.521       .  S
C1127      F1131   1.385       .  S
C1127      F1132   1.383       .  S
C1127      F1133   1.381       .  S
C1130      F1134   1.383       .  S
C1130      F1135   1.382       .  S
C1130      F1136   1.384       .  S
C1137      C1138   1.408       .  A
C1137      C1142   1.410       .  A
C1137      H1144   1.084       .  S
C1138      C1139   1.430       .  A
C1139      C1140   1.398       .  A
C1139      C1146   1.525       .  S
C1140      C1141   1.401       .  A
C1140      H1145   1.081       .  S
C1141      C1142   1.421       .  A
C1142      C1143   1.518       .  S
C1143      F1147   1.384       .  S
C1143      F1148   1.382       .  S
C1143      F1149   1.383       .  S
C1146      F1150   1.384       .  S
C1146      F1151   1.380       .  S
C1146      F1152   1.386       .  S
C1153      C1154   1.408       .  A
C1153      C1158   1.401       .  A
C1153      H1160   1.085       .  S
C1154      C1155   1.422       .  A
C1155      C1156   1.413       .  A
C1155      C1162   1.517       .  S
C1156      C1157   1.404       .  A
C1156      H1161   1.083       .  S
C1157      C1158   1.416       .  A
C1158      C1159   1.520       .  S
C1159      F1163   1.384       .  S
C1159      F1164   1.383       .  S
C1159      F1165   1.382       .  S
C1162      F1166   1.382       .  S
C1162      F1167   1.384       .  S
C1162      F1168   1.385       .  S
C1169      C1170   1.402       .  A
C1169      C1174   1.407       .  A
C1169      H1176   1.083       .  S
C1170      C1171   1.416       .  A
C1171      C1172   1.402       .  A
C1171      C1178   1.515       .  S
C1172      C1173   1.400       .  A
C1172      H1177   1.084       .  S
C1173      C1174   1.415       .  A
C1174      C1175   1.516       .  S
C1175      F1179   1.384       .  S
C1175      F1180   1.383       .  S
C1175      F1181   1.381       .  S
C1178      F1182   1.383       .  S
C1178      F1183   1.376       .  S
C1178      F1184   1.385       .  S
C1185      C1186   1.400       .  A
C1185      C1190   1.410       .  A
C1185      H1192   1.084       .  S
C1186      C1187   1.415       .  A
C1187      C1188   1.409       .  A
C1187      C1194   1.515       .  S
C1188      C1189   1.405       .  A
C1188      H1193   1.083       .  S
C1189      C1190   1.426       .  A
C1190      C1191   1.520       .  S
C1191      F1195   1.385       .  S
C1191      F1196   1.384       .  S
C1191      F1197   1.379       .  S
C1194      F1198   1.383       .  S
C1194      F1199   1.378       .  S
C1194      F1200   1.384       .  S
C1201      C1202   1.402       .  A
C1201      C1206   1.401       .  A
C1201      H1208   1.083       .  S
C1202      C1203   1.424       .  A
C1203      C1204   1.415       .  A
C1203      C1210   1.519       .  S
C1204      C1205   1.406       .  A
C1204      H1209   1.083       .  S
C1205      C1206   1.424       .  A
C1206      C1207   1.522       .  S
C1207      F1211   1.385       .  S
C1207      F1212   1.380       .  S
C1207      F1213   1.384       .  S
C1210      F1214   1.381       .  S
C1210      F1215   1.383       .  S
C1210      F1216   1.385       .  S
C1217      C1218   1.407       .  A
C1217      C1222   1.407       .  A
C1217      H1224   1.083       .  S
C1218      C1219   1.424       .  A
C1219      C1220   1.408       .  A
C1219      C1226   1.519       .  S
C1220      C1221   1.400       .  A
C1220      H1225   1.085       .  S
C1221      C1222   1.414       .  A
C1222      C1223   1.518       .  S
C1223      F1227   1.385       .  S
C1223      F1228   1.384       .  S
C1223      F1229   1.382       .  S
C1226      F1230   1.382       .  S
C1226      F1231   1.383       .  S
C1226      F1232   1.384       .  S
C1233      C1234   1.412       .  A
C1233      C1238   1.405       .  A
C1233      H1240   1.081       .  S
C1234      C1235   1.428       .  A
C1235      C1236   1.415       .  A
C1235      C1242   1.520       .  S
C1236      C1237   1.405       .  A
C1236      H1241   1.083       .  S
C1237      C1238   1.417       .  A
C1238      C1239   1.524       .  S
C1239      F1243   1.385       .  S
C1239      F1244   1.383       .  S
C1239      F1245   1.381       .  S
C1242      F1246   1.383       .  S
C1242      F1247   1.383       .  S
C1242      F1248   1.385       .  S
C1249      C1250   1.400       .  A
C1249      C1254   1.404       .  A
C1249      H1256   1.084       .  S
C1250      C1251   1.406       .  A
C1251      C1252   1.408       .  A
C1251      C1258   1.516       .  S
C1252      C1253   1.416       .  A
C1252      H1257   1.082       .  S
C1253      C1254   1.424       .  A
C1254      C1255   1.520       .  S
C1255      F1259   1.385       .  S
C1255      F1260   1.381       .  S
C1255      F1261   1.381       .  S
C1258      F1262   1.383       .  S
C1258      F1263   1.383       .  S
C1258      F1264   1.384       .  S
C1265      C1266   1.408       .  A
C1265      C1270   1.405       .  A
C1265      H1272   1.082       .  S
C1266      C1267   1.423       .  A
C1267      C1268   1.414       .  A
C1267      C1274   1.519   1_455  S
C1268      C1269   1.406       .  A
C1268      H1273   1.083       .  S
C1269      C1270   1.417       .  A
C1270      C1271   1.521       .  S
C1271      F1275   1.385       .  S
C1271      F1276   1.382       .  S
C1271      F1277   1.381       .  S
C1274      F1278   1.384       .  S
C1274      F1279   1.383       .  S
C1274      F1280   1.385       .  S
C1281      C1282   1.397       .  A
C1281      C1286   1.410       .  A
C1281      H1288   1.083       .  S
C1282      C1283   1.415       .  A
C1283      C1284   1.400       .  A
C1283      C1290   1.515       .  S
C1284      C1285   1.402       .  A
C1284      H1289   1.083       .  S
C1285      C1286   1.430       .  A
C1286      C1287   1.522       .  S
C1287      F1291   1.385       .  S
C1287      F1292   1.382       .  S
C1287      F1293   1.383       .  S
C1290      F1294   1.381       .  S
C1290      F1295   1.382       .  S
C1290      F1296   1.385       .  S
C1297      C1298   1.404       .  A
C1297      C1302   1.402       .  A
C1297      H1304   1.083       .  S
C1298      C1299   1.420       .  A
C1299      C1300   1.413       .  A
C1299      C1306   1.518       .  S
C1300      C1301   1.409       .  A
C1300      H1305   1.083       .  S
C1301      C1302   1.420       .  A
C1302      C1303   1.518       .  S
C1303      F1307   1.385       .  S
C1303      F1308   1.383       .  S
C1303      F1309   1.380       .  S
C1306      F1310   1.384       .  S
C1306      F1311   1.383       .  S
C1306      F1312   1.385       .  S
C1313      C1314   1.408       .  A
C1313      C1318   1.408       .  A
C1313      H1320   1.083       .  S
C1314      C1315   1.423       .  A
C1315      C1316   1.405       .  A
C1315      C1322   1.521       .  S
C1316      C1317   1.399       .  A
C1316      H1321   1.083       .  S
C1317      C1318   1.412       .  A
C1318      C1319   1.517       .  S
C1319      F1323   1.385       .  S
C1319      F1324   1.383       .  S
C1319      F1325   1.382       .  S
C1322      F1326   1.383       .  S
C1322      F1327   1.383       .  S
C1322      F1328   1.385       .  S
C1329      C1330   1.398       .  A
C1329      C1334   1.408       .  A
C1329      H1336   1.084       .  S
C1330      C1331   1.417       .  A
C1331      C1332   1.410   1_565  A
C1331      C1338   1.518   1_565  S
C1332      C1333   1.406   1_545  A
C1332      H1337   1.083       .  S
C1333      C1334   1.428       .  A
C1334      C1335   1.521       .  S
C1335      F1339   1.385       .  S
C1335      F1340   1.384       .  S
C1335      F1341   1.382       .  S
C1338      F1342   1.383   1_545  S
C1338      F1343   1.381       .  S
C1338      F1344   1.384       .  S
C1345      C1346   1.408       .  A
C1345      C1350   1.406       .  A
C1345      H1352   1.083       .  S
C1346      C1347   1.423   1_655  A
C1347      C1348   1.413   1_455  A
C1347      C1354   1.519       .  S
C1348      C1349   1.403       .  A
C1348      H1353   1.083       .  S
C1349      C1350   1.415       .  A
C1350      C1351   1.519       .  S
C1351      F1355   1.385       .  S
C1351      F1356   1.383       .  S
C1351      F1357   1.381       .  S
C1354      F1358   1.383       .  S
C1354      F1359   1.383       .  S
C1354      F1360   1.385       .  S
C1361      C1362   1.401       .  A
C1361      C1366   1.408       .  A
C1361      H1368   1.083       .  S
C1362      C1363   1.414       .  A
C1363      C1364   1.409       .  A
C1363      C1370   1.517       .  S
C1364      C1365   1.405       .  A
C1364      H1369   1.083       .  S
C1365      C1366   1.421       .  A
C1366      C1367   1.519       .  S
C1367      F1371   1.385       .  S
C1367      F1372   1.381       .  S
C1367      F1373   1.383       .  S
C1370      F1374   1.382       .  S
C1370      F1375   1.383       .  S
C1370      F1376   1.384       .  S
C1377      C1378   1.400       .  A
C1377      C1382   1.408       .  A
C1377      H1384   1.083       .  S
C1378      C1379   1.416       .  A
C1379      C1380   1.417       .  A
C1379      C1386   1.517       .  S
C1380      C1381   1.412       .  A
C1380      H1385   1.082   1_556  S
C1381      C1382   1.432       .  A
C1382      C1383   1.524       .  S
C1383      F1387   1.385       .  S
C1383      F1388   1.383       .  S
C1383      F1389   1.384       .  S
C1386      F1390   1.381       .  S
C1386      F1391   1.383       .  S
C1386      F1392   1.384   1_556  S
C1393      C1394   1.411   1_545  A
C1393      C1398   1.409   1_545  A
C1393      H1400   1.082       .  S
C1394      C1395   1.434       .  A
C1395      C1396   1.406       .  A
C1395      C1402   1.524       .  S
C1396      C1397   1.396       .  A
C1396      H1401   1.083       .  S
C1397      C1398   1.414       .  A
C1398      C1399   1.519   1_565  S
C1399      F1403   1.384       .  S
C1399      F1404   1.383   1_545  S
C1399      F1405   1.381       .  S
C1402      F1406   1.384       .  S
C1402      F1407   1.383   1_556  S
C1402      F1408   1.385       .  S
C1409      C1410   1.406       .  A
C1409      C1414   1.405       .  A
C1409      H1416   1.082       .  S
C1410      C1411   1.424       .  A
C1411      C1412   1.407       .  A
C1411      C1418   1.520       .  S
C1412      C1413   1.401       .  A
C1412      H1417   1.083       .  S
C1413      C1414   1.418       .  A
C1414      C1415   1.523       .  S
C1415      F1419   1.385       .  S
C1415      F1420   1.381       .  S
C1415      F1421   1.381       .  S
C1418      F1422   1.383       .  S
C1418      F1423   1.383   1_565  S
C1418      F1424   1.385       .  S
C1425      C1426   1.411       .  A
C1425      C1430   1.406       .  A
C1425      H1432   1.080       .  S
C1426      C1427   1.423       .  A
C1427      C1428   1.413       .  A
C1427      C1434   1.518   1_556  S
C1428      C1429   1.403       .  A
C1428      H1433   1.083       .  S
C1429      C1430   1.411       .  A
C1430      C1431   1.520       .  S
C1431      F1435   1.383       .  S
C1431      F1436   1.382       .  S
C1431      F1437   1.383       .  S
C1434      F1438   1.382       .  S
C1434      F1439   1.384       .  S
C1434      F1440   1.385       .  S
C1441      C1442   1.411       .  A
C1441      C1446   1.409       .  A
C1441      H1448   1.082       .  S
C1442      C1443   1.430       .  A
C1443      C1444   1.406       .  A
C1443      C1450   1.522       .  S
C1444      C1445   1.399       .  A
C1444      H1449   1.083       .  S
C1445      C1446   1.417       .  A
C1446      C1447   1.521       .  S
C1447      F1451   1.385       .  S
C1447      F1452   1.383       .  S
C1447      F1453   1.381       .  S
C1450      F1454   1.384       .  S
C1450      F1455   1.383       .  S
C1450      F1456   1.384       .  S
C1457      C1458   1.401       .  A
C1457      C1462   1.401       .  A
C1457      H1464   1.080       .  S
C1458      C1459   1.419       .  A
C1459      C1460   1.417       .  A
C1459      C1466   1.517       .  S
C1460      C1461   1.407       .  A
C1460      H1465   1.083   1_655  S
C1461      C1462   1.418       .  A
C1462      C1463   1.521   1_565  S
C1463      F1467   1.385       .  S
C1463      F1468   1.379       .  S
C1463      F1469   1.384       .  S
C1466      F1470   1.381       .  S
C1466      F1471   1.383       .  S
C1466      F1472   1.385   1_655  S
C1473      C1474   1.405       .  A
C1473      C1478   1.408       .  A
C1473      H1480   1.083       .  S
C1474      C1475   1.413       .  A
C1475      C1476   1.405       .  A
C1475      C1482   1.518       .  S
C1476      C1477   1.403       .  A
C1476      H1481   1.084       .  S
C1477      C1478   1.413       .  A
C1478      C1479   1.517       .  S
C1479      F1483   1.384       .  S
C1479      F1484   1.380       .  S
C1479      F1485   1.383       .  S
C1482      F1486   1.382       .  S
C1482      F1487   1.383       .  S
C1482      F1488   1.385   1_655  S
C1489      C1490   1.414       .  A
C1489      C1494   1.402       .  A
C1489      H1496   1.081       .  S
C1490      C1491   1.442       .  A
C1491      C1492   1.412       .  A
C1491      C1498   1.524       .  S
C1492      C1493   1.397       .  A
C1492      H1497   1.082       .  S
C1493      C1494   1.414       .  A
C1494      C1495   1.521       .  S
C1495      F1499   1.384       .  S
C1495      F1500   1.382       .  S
C1495      F1501   1.383       .  S
C1498      F1502   1.384       .  S
C1498      F1503   1.382       .  S
C1498      F1504   1.385       .  S
C1505      C1506   1.408       .  A
C1505      C1510   1.390       .  A
C1505      H1512   1.079       .  S
C1506      C1507   1.430       .  A
C1507      C1508   1.417       .  A
C1507      C1514   1.518       .  S
C1508      C1509   1.408       .  A
C1508      H1513   1.082       .  S
C1509      C1510   1.418       .  A
C1510      C1511   1.523       .  S
C1511      F1515   1.385       .  S
C1511      F1516   1.379       .  S
C1511      F1517   1.383       .  S
C1514      F1518   1.383       .  S
C1514      F1519   1.382       .  S
C1514      F1520   1.385       .  S
C1521      C1522   1.398       .  A
C1521      C1526   1.405       .  A
C1521      H1528   1.083       .  S
C1522      C1523   1.421       .  A
C1523      C1524   1.401       .  A
C1523      C1530   1.522       .  S
C1524      C1525   1.399       .  A
C1524      H1529   1.084       .  S
C1525      C1526   1.418       .  A
C1526      C1527   1.518       .  S
C1527      F1531   1.384       .  S
C1527      F1532   1.381       .  S
C1527      F1533   1.381       .  S
C1530      F1534   1.379       .  S
C1530      F1535   1.383       .  S
C1530      F1536   1.385       .  S
C1537      C1538   1.406       .  A
C1537      C1542   1.406       .  A
C1537      H1544   1.083       .  S
C1538      C1539   1.418       .  A
C1539      C1540   1.397       .  A
C1539      C1546   1.519       .  S
C1540      C1541   1.399       .  A
C1540      H1545   1.085       .  S
C1541      C1542   1.409       .  A
C1542      C1543   1.514       .  S
C1543      F1547   1.384       .  S
C1543      F1548   1.382       .  S
C1543      F1549   1.383       .  S
C1546      F1550   1.383       .  S
C1546      F1551   1.381       .  S
C1546      F1552   1.384       .  S
C1553      C1554   1.406       .  A
C1553      C1558   1.388       .  A
C1553      H1560   1.082       .  S
C1554      C1555   1.435       .  A
C1555      C1556   1.418       .  A
C1555      C1562   1.517       .  S
C1556      C1557   1.405       .  A
C1556      H1561   1.083       .  S
C1557      C1558   1.414       .  A
C1558      C1559   1.517       .  S
C1559      F1563   1.385       .  S
C1559      F1564   1.382       .  S
C1559      F1565   1.382       .  S
C1562      F1566   1.380       .  S
C1562      F1567   1.382       .  S
C1562      F1568   1.385       .  S
C1569      C1570   1.397       .  A
C1569      C1574   1.404       .  A
C1569      H1576   1.083       .  S
C1570      C1571   1.415       .  A
C1571      C1572   1.403       .  A
C1571      C1578   1.519       .  S
C1572      C1573   1.401       .  A
C1572      H1577   1.084       .  S
C1573      C1574   1.417       .  A
C1574      C1575   1.514       .  S
C1575      F1579   1.384       .  S
C1575      F1580   1.377       .  S
C1575      F1581   1.383       .  S
C1578      F1582   1.382       .  S
C1578      F1583   1.383       .  S
C1578      F1584   1.385       .  S
C1585      C1586   1.399       .  A
C1585      C1590   1.402       .  A
C1585      H1592   1.085       .  S
C1586      C1587   1.416       .  A
C1587      C1588   1.407       .  A
C1587      C1594   1.518       .  S
C1588      C1589   1.404       .  A
C1588      H1593   1.083       .  S
C1589      C1590   1.422       .  A
C1590      C1591   1.519       .  S
C1591      F1595   1.384       .  S
C1591      F1596   1.383       .  S
C1591      F1597   1.383       .  S
C1594      F1598   1.383       .  S
C1594      F1599   1.382       .  S
C1594      F1600   1.384       .  S
C1601      C1602   1.401       .  A
C1601      C1606   1.409       .  A
C1601      H1608   1.083       .  S
C1602      C1603   1.414       .  A
C1603      C1604   1.402       .  A
C1603      C1610   1.519       .  S
C1604      C1605   1.404       .  A
C1604      H1609   1.083       .  S
C1605      C1606   1.422       .  A
C1606      C1607   1.520       .  S
C1607      F1611   1.385       .  S
C1607      F1612   1.381       .  S
C1607      F1613   1.383       .  S
C1610      F1614   1.381       .  S
C1610      F1615   1.382       .  S
C1610      F1616   1.384       .  S
C1617      C1618   1.403       .  A
C1617      C1622   1.406       .  A
C1617      H1624   1.083       .  S
C1618      C1619   1.417       .  A
C1619      C1620   1.406       .  A
C1619      C1626   1.519       .  S
C1620      C1621   1.401       .  A
C1620      H1625   1.083       .  S
C1621      C1622   1.414       .  A
C1622      C1623   1.517       .  S
C1623      F1627   1.384       .  S
C1623      F1628   1.383       .  S
C1623      F1629   1.383       .  S
C1626      F1630   1.382       .  S
C1626      F1631   1.383       .  S
C1626      F1632   1.385       .  S
C1633      C1634   1.410       .  A
C1633      C1638   1.415       .  A
C1633      H1640   1.082       .  S
C1634      C1635   1.413       .  A
C1635      C1636   1.390       .  A
C1635      C1642   1.521       .  S
C1636      C1637   1.413       .  A
C1636      H1641   1.082       .  S
C1637      C1638   1.429       .  A
C1638      C1639   1.518       .  S
C1639      F1643   1.385       .  S
C1639      F1644   1.383       .  S
C1639      F1645   1.382       .  S
C1642      F1646   1.382       .  S
C1642      F1647   1.383       .  S
C1642      F1648   1.385       .  S
C1649      C1650   1.407       .  A
C1649      C1654   1.401       .  A
C1649      H1656   1.080       .  S
C1650      C1651   1.417       .  A
C1651      C1652   1.404       .  A
C1651      C1658   1.516       .  S
C1652      C1653   1.402       .  A
C1652      H1657   1.085       .  S
C1653      C1654   1.409       .  A
C1654      C1655   1.519       .  S
C1655      F1659   1.385       .  S
C1655      F1660   1.383       .  S
C1655      F1661   1.383       .  S
C1658      F1662   1.383       .  S
C1658      F1663   1.382       .  S
C1658      F1664   1.384       .  S
C1665      C1666   1.402       .  A
C1665      C1670   1.410       .  A
C1665      H1672   1.083       .  S
C1666      C1667   1.417       .  A
C1667      C1668   1.398       .  A
C1667      C1674   1.519       .  S
C1668      C1669   1.400       .  A
C1668      H1673   1.084       .  S
C1669      C1670   1.420       .  A
C1670      C1671   1.519       .  S
C1671      F1675   1.385       .  S
C1671      F1676   1.381       .  S
C1671      F1677   1.383       .  S
C1674      F1678   1.381       .  S
C1674      F1679   1.381       .  S
C1674      F1680   1.385       .  S
C1681      C1682   1.397       .  A
C1681      C1686   1.400       .  A
C1681      H1688   1.085       .  S
C1682      C1683   1.413       .  A
C1683      C1684   1.411       .  A
C1683      C1690   1.515       .  S
C1684      C1685   1.406       .  A
C1684      H1689   1.083       .  S
C1685      C1686   1.423       .  A
C1686      C1687   1.519       .  S
C1687      F1691   1.384       .  S
C1687      F1692   1.383       .  S
C1687      F1693   1.382       .  S
C1690      F1694   1.383       .  S
C1690      F1695   1.383       .  S
C1690      F1696   1.384       .  S
C1697      C1698   1.406       .  A
C1697      C1702   1.404       .  A
C1697      H1704   1.083       .  S
C1698      C1699   1.424       .  A
C1699      C1700   1.409       .  A
C1699      C1706   1.522       .  S
C1700      C1701   1.400       .  A
C1700      H1705   1.083       .  S
C1701      C1702   1.414       .  A
C1702      C1703   1.520       .  S
C1703      F1707   1.384       .  S
C1703      F1708   1.383       .  S
C1703      F1709   1.382       .  S
C1706      F1710   1.381       .  S
C1706      F1711   1.383       .  S
C1706      F1712   1.385       .  S
C1713      C1714   1.405       .  A
C1713      C1718   1.404       .  A
C1713      H1720   1.084       .  S
C1714      C1715   1.415       .  A
C1715      C1716   1.408       .  A
C1715      C1722   1.517       .  S
C1716      C1717   1.403       .  A
C1716      H1721   1.083       .  S
C1717      C1718   1.414       .  A
C1718      C1719   1.519       .  S
C1719      F1723   1.385       .  S
C1719      F1724   1.382       .  S
C1719      F1725   1.383       .  S
C1722      F1726   1.382       .  S
C1722      F1727   1.383       .  S
C1722      F1728   1.384       .  S
C1729      C1730   1.407       .  A
C1729      C1734   1.394       .  A
C1729      H1736   1.083       .  S
C1730      C1731   1.430       .  A
C1731      C1732   1.417       .  A
C1731      C1738   1.519       .  S
C1732      C1733   1.409       .  A
C1732      H1737   1.082       .  S
C1733      C1734   1.422       .  A
C1734      C1735   1.522       .  S
C1735      F1739   1.385       .  S
C1735      F1740   1.379       .  S
C1735      F1741   1.383       .  S
C1738      F1742   1.383       .  S
C1738      F1743   1.382       .  S
C1738      F1744   1.385       .  S
C1745      C1746   1.408       .  A
C1745      C1750   1.404       .  A
C1745      H1752   1.083       .  S
C1746      C1747   1.417       .  A
C1747      C1748   1.403       .  A
C1747      C1754   1.517       .  S
C1748      C1749   1.401       .  A
C1748      H1753   1.085       .  S
C1749      C1750   1.410       .  A
C1750      C1751   1.518       .  S
C1751      F1755   1.385       .  S
C1751      F1756   1.383       .  S
C1751      F1757   1.383       .  S
C1754      F1758   1.383       .  S
C1754      F1759   1.382       .  S
C1754      F1760   1.384       .  S
C1761      C1762   1.405       .  A
C1761      C1766   1.409       .  A
C1761      H1768   1.083       .  S
C1762      C1763   1.414       .  A
C1763      C1764   1.404       .  A
C1763      C1770   1.517       .  S
C1764      C1765   1.402       .  A
C1764      H1769   1.083       .  S
C1765      C1766   1.413       .  A
C1766      C1767   1.516       .  S
C1767      F1771   1.385       .  S
C1767      F1772   1.383       .  S
C1767      F1773   1.383       .  S
C1770      F1774   1.383       .  S
C1770      F1775   1.383       .  S
C1770      F1776   1.385       .  S
C1777      C1778   1.401       .  A
C1777      C1782   1.402       .  A
C1777      H1784   1.083       .  S
C1778      C1779   1.419       .  A
C1779      C1780   1.411       .  A
C1779      C1786   1.518       .  S
C1780      C1781   1.403       .  A
C1780      H1785   1.083       .  S
C1781      C1782   1.415       .  A
C1782      C1783   1.520       .  S
C1783      F1787   1.385       .  S
C1783      F1788   1.382       .  S
C1783      F1789   1.382       .  S
C1786      F1790   1.381       .  S
C1786      F1791   1.383       .  S
C1786      F1792   1.385       .  S
C1793      C1794   1.407       .  A
C1793      C1798   1.394       .  A
C1793      H1800   1.083       .  S
C1794      C1795   1.428       .  A
C1795      C1796   1.414       .  A
C1795      C1802   1.518       .  S
C1796      C1797   1.407       .  A
C1796      H1801   1.083       .  S
C1797      C1798   1.421       .  A
C1798      C1799   1.521       .  S
C1799      F1803   1.385       .  S
C1799      F1804   1.379       .  S
C1799      F1805   1.383       .  S
C1802      F1806   1.383       .  S
C1802      F1807   1.382       .  S
C1802      F1808   1.385       .  S
C1809      C1810   1.407       .  A
C1809      C1814   1.405       .  A
C1809      H1816   1.083       .  S
C1810      C1811   1.415       .  A
C1811      C1812   1.401       .  A
C1811      C1818   1.518       .  S
C1812      C1813   1.403       .  A
C1812      H1817   1.084       .  S
C1813      C1814   1.411       .  A
C1814      C1815   1.518       .  S
C1815      F1819   1.385       .  S
C1815      F1820   1.383       .  S
C1815      F1821   1.382       .  S
C1818      F1822   1.382       .  S
C1818      F1823   1.383       .  S
C1818      F1824   1.384       .  S
