geometry optimzed in LAMMPS
_audit_creation_date              2020-11-30 
_audit_creation_method            'lammps2cif' 
_symmetry_space_group_name_H-M    'P1' 
_symmetry_Int_Tables_number       1 
_symmetry_cell_setting            triclinic 
loop_ 
_symmetry_equiv_pos_as_xyz 
  x,y,z 
_cell_length_a                    34.64233697 
_cell_length_b                    37.96183194516966 
_cell_length_c                    30.19079776302198 
_cell_angle_alpha                 90.08705806707901 
_cell_angle_beta                  90.01493114386466 
_cell_angle_gamma                 89.54191816453016 
loop_ 
_atom_site_label 
_atom_site_type_symbol 
_atom_site_fract_x 
_atom_site_fract_y 
_atom_site_fract_z 
_atom_site_charge 
C1          C  0.03755050  0.49817734  0.27774957     0.30900
C2          C  0.45823821  0.49965147  0.27798334     0.31000
C3          C  0.01796333  0.49287266  0.32273357    -0.05200
C4          C  0.01847043  0.03252257  0.26013924    -0.06000
C5          C  0.01765506  0.47034345  0.24832833    -0.05900
C6          C  0.47790121  0.49365825  0.32276817    -0.05300
C7          C  0.47792759  0.03322159  0.26034177    -0.06000
C8          C  0.47725793  0.47100583  0.24856263    -0.05900
C9          C  0.46619264  0.99189151  0.36610856    -0.31300
N10         N  0.49799048  0.98995974  0.39245466     0.15200
C11         C  0.02984303  0.99068662  0.36610741    -0.31300
H12         H  0.05936018  0.99155771  0.37778498     0.17100
C13         C  0.46677490  0.05650853  0.22744940    -0.30300
N14         N  0.99847806  0.07085380  0.20884660     0.13900
C15         C  0.02992687  0.05520477  0.22689353    -0.30300
C16         C  0.46519496  0.44665988  0.21762342    -0.30600
N17         N  0.99676418  0.43119330  0.19883089     0.14400
H18         H  0.43563537  0.44143506  0.20823604     0.17100
C19         C  0.02882653  0.44580031  0.21707338    -0.30600
H20         H  0.05820869  0.43921578  0.20807231     0.17100
H21         H  0.05905179  0.05839945  0.21468478     0.17100
H22         H  0.43665978  0.99307832  0.37774445     0.17100
H23         H  0.43770016  0.06045975  0.21519612     0.17100
C24         C  0.20831354  0.00370598  0.27684384     0.30900
C25         C  0.28758595  0.00354264  0.27751383     0.31000
C26         C  0.22768663  0.99804284  0.32189599    -0.05200
C27         C  0.22817402  0.47605746  0.24721113    -0.06000
C28         C  0.22752199  0.03783778  0.25982359    -0.05900
C29         C  0.26773713  0.99808225  0.32221521    -0.05300
C30         C  0.26839175  0.47609813  0.24736186    -0.06000
C31         C  0.26819550  0.03785993  0.26052263    -0.05900
C32         C  0.27918403  0.49647682  0.36580895    -0.31300
N33         N  0.24721163  0.49523853  0.39186045     0.15200
C34         C  0.21552845  0.49590545  0.36528527    -0.31300
H35         H  0.18594874  0.49666320  0.37681829     0.17100
C36         C  0.28035166  0.45278954  0.21499095    -0.30300
N37         N  0.24867237  0.43826351  0.19592515     0.13900
C38         C  0.21675831  0.45270795  0.21497161    -0.30300
C39         C  0.27970212  0.06181232  0.22876160    -0.30600
N40         N  0.24822916  0.07719122  0.20996622     0.14400
H41         H  0.30911248  0.06602626  0.21818292     0.17100
C42         C  0.21655264  0.06140205  0.22708961    -0.30600
H43         H  0.18767585  0.06436034  0.21388895     0.17100
H44         H  0.18737060  0.44738890  0.20494592     0.17100
H45         H  0.30864197  0.49710231  0.37772367     0.17100
H46         H  0.30989500  0.44689566  0.20592661     0.17100
C47         C  0.03970424  0.99426701  0.69543246     0.30900
C48         C  0.46040414  0.99350674  0.69521242     0.31000
C49         C  0.02000259  0.00131302  0.65083943    -0.05200
C50         C  0.02106206  0.45922622  0.71008891    -0.06000
C51         C  0.01951545  0.02072650  0.72667650    -0.05900
C52         C  0.47994502  0.00104152  0.65089018    -0.05300
C53         C  0.48017790  0.45860407  0.70960991    -0.06000
C54         C  0.47930101  0.02036267  0.72654646    -0.05900
C55         C  0.46785600  0.50087408  0.60760686    -0.31300
N56         N  0.49947116  0.50100789  0.58104469     0.15200
C57         C  0.03143260  0.50097834  0.60724356    -0.31300
H58         H  0.06085301  0.49873065  0.59546285     0.17100
C59         C  0.46948536  0.43421554  0.74128183    -0.30300
N60         N  0.00141664  0.41967714  0.75969473     0.13900
C61         C  0.03265623  0.43577230  0.74256149    -0.30300
C62         C  0.46700157  0.04461158  0.75763661    -0.30600
N63         N  0.99851174  0.05955744  0.77645092     0.14400
H64         H  0.43740778  0.05066819  0.76646576     0.17100
C65         C  0.03065450  0.04491773  0.75813567    -0.30600
H66         H  0.05995141  0.05165002  0.76694998     0.17100
H67         H  0.06170954  0.43251696  0.75514669     0.17100
H68         H  0.43843370  0.49772192  0.59628010     0.17100
H69         H  0.44056937  0.42993568  0.75358486     0.17100
C70         C  0.21036928  0.50408222  0.69567753     0.30900
C71         C  0.28968815  0.50238003  0.69414913     0.31000
C72         C  0.22924974  0.49631329  0.65081364    -0.05200
C73         C  0.23053889  0.03844165  0.71020968    -0.06000
C74         C  0.22997678  0.47699150  0.72635512    -0.05900
C75         C  0.26929096  0.49558626  0.65001910    -0.05300
C76         C  0.27143720  0.03754328  0.70937623    -0.06000
C77         C  0.27016517  0.47624388  0.72570674    -0.05900
C78         C  0.28048774  0.99300395  0.60614765    -0.31300
N79         N  0.24824423  0.99181599  0.58053105     0.15200
C80         C  0.21683364  0.99376960  0.60738837    -0.31300
H81         H  0.18721514  0.99567910  0.59613313     0.17100
C82         C  0.28363105  0.06108187  0.74154961    -0.30300
N83         N  0.25258720  0.07703086  0.76022733     0.13900
C84         C  0.22048293  0.06231926  0.74303646    -0.30300
C85         C  0.28198233  0.45227323  0.75713984    -0.30600
N86         N  0.25023624  0.43808919  0.77626207     0.14400
H87         H  0.31149979  0.44534565  0.76517645     0.17100
C88         C  0.21835094  0.45320489  0.75791295    -0.30600
H89         H  0.18890876  0.44767620  0.76743960     0.17100
H90         H  0.19193595  0.06619968  0.75683345     0.17100
H91         H  0.30979048  0.99362190  0.59376633     0.17100
H92         H  0.31299190  0.06449721  0.75285395     0.17100
Zn93       Zn  0.46934592  0.24691360  0.03914552     1.49700
Zn94       Zn  0.03064036  0.28973145  0.98454906     1.49400
Zn95       Zn  0.03398529  0.20441248  0.98640200     1.49100
Zn96       Zn  0.46988067  0.24494545  0.93136731     1.49500
O97         O  0.00092552  0.24635766  0.98544489    -1.83200
O98         O  0.47711501  0.29090139  0.07642326    -0.73800
O99         O  0.08647985  0.27803032  0.98508982    -0.73600
O100        O  0.02487721  0.17484519  0.04100508    -0.73100
O101        O  0.01938910  0.32099464  0.03692442    -0.73800
O102        O  0.47877412  0.20379439  0.07700342    -0.73400
O103        O  0.08927734  0.21923981  0.98524522    -0.74000
O104        O  0.47828859  0.20032044  0.89654583    -0.73400
O105        O  0.02121102  0.31823443  0.92965974    -0.74200
O106        O  0.02426687  0.17252880  0.93395949    -0.73500
O107        O  0.48031121  0.28602181  0.89088399    -0.74000
O108        O  0.41436030  0.24687810  0.94760194    -0.73900
O109        O  0.41421183  0.24693164  0.02156674    -0.73700
C110        C  0.99764650  0.31821991  0.07069299     0.78100
C111        C  0.10536577  0.24924349  0.98491516     0.78600
C112        C  0.00167379  0.17749613  0.07357304     0.77500
C113        C  0.00086589  0.17401780  0.90145433     0.77900
C114        C  0.00101346  0.31337410  0.89504248     0.79000
C115        C  0.39684462  0.24729267  0.98454428     0.78100
Zn116      Zn  0.28429853  0.29391430  0.98560054     1.49700
Zn117      Zn  0.28090482  0.20873896  0.98532376     1.49400
Zn118      Zn  0.21966112  0.25404659  0.03892719     1.49100
Zn119      Zn  0.22014949  0.25367817  0.93125535     1.49500
O120        O  0.25114265  0.25256802  0.98527401    -1.83200
O121        O  0.33906830  0.27882591  0.98573313    -0.73800
O122        O  0.27136934  0.17997154  0.04043065    -0.73600
O123        O  0.22721791  0.29923088  0.07341513    -0.73100
O124        O  0.33679238  0.22008612  0.98402742    -0.73800
O125        O  0.27495038  0.32541543  0.03793812    -0.73400
O126        O  0.23002758  0.21240883  0.07935819    -0.74000
O127        O  0.16442917  0.25177494  0.94775052    -0.73400
O128        O  0.27044345  0.17863934  0.93143849    -0.74800
O129        O  0.16439154  0.25166390  0.02171689    -0.73500
O130        O  0.23108679  0.21188397  0.89119952    -0.74000
O131        O  0.22877494  0.29828541  0.89643472    -0.73900
O132        O  0.27592512  0.32472103  0.93278657    -0.73700
C133        C  0.35536895  0.24878185  0.98461806     0.78100
C134        C  0.25086788  0.18480391  0.07495885     0.78600
C135        C  0.25051865  0.32481379  0.06933270     0.77500
C136        C  0.14693999  0.25087101  0.98473932     0.77900
C137        C  0.25092066  0.18376606  0.89624893     0.79000
C138        C  0.25211917  0.32380013  0.90079139     0.78100
C139        C  0.22219891  0.38379671  0.80609687    -0.20400
C140        C  0.25026996  0.41017346  0.80840441    -0.08400
C141        C  0.27864581  0.40826570  0.84165741     0.30500
C142        C  0.27919305  0.38004723  0.87131974    -0.20400
C143        C  0.25138873  0.35327877  0.86863303    -0.08400
C144        C  0.22260778  0.35565634  0.83578876     0.30500
F145        F  0.19462393  0.33099329  0.83232947    -0.18900
H146        H  0.20019385  0.38466809  0.78064846     0.18800
H147        H  0.30140447  0.37929049  0.89656331     0.18800
F148        F  0.30521012  0.43409610  0.84628725    -0.18900
C149        C  0.22782679  0.13281033  0.79077925    -0.20400
C150        C  0.25288119  0.10371329  0.79419818    -0.08400
C151        C  0.27748803  0.10117428  0.83108740     0.30500
C152        C  0.27662992  0.12721984  0.86401056    -0.20400
C153        C  0.25151072  0.15648867  0.86070981    -0.08400
C154        C  0.22717512  0.15904827  0.82336257     0.30500
F155        F  0.20241303  0.18663888  0.81829223    -0.18900
H156        H  0.20884378  0.13527481  0.76242846     0.18800
H157        H  0.29567355  0.12435263  0.89224992     0.18800
F158        F  0.30136217  0.07296329  0.83613224    -0.18900
C159        C  0.47855514  0.36328218  0.78884108    -0.20400
C160        C  0.00167660  0.39319067  0.79363789    -0.08400
C161        C  0.02512044  0.39642432  0.83137600     0.30500
C162        C  0.02486885  0.37030286  0.86395154    -0.20400
C163        C  0.00155093  0.34028923  0.85940715    -0.08400
C164        C  0.47864548  0.33687533  0.82104925     0.30500
F165        F  0.45626094  0.30815763  0.81445649    -0.18900
H166        H  0.46073924  0.36024313  0.75962721     0.18800
H167        H  0.04283913  0.37377872  0.89296171     0.18800
F168        F  0.04730628  0.42532252  0.83748767    -0.18900
C169        C  0.52431332  0.11512565  0.87466841    -0.20400
C170        C  0.99965363  0.14442586  0.86917181    -0.08400
C171        C  0.97370153  0.14462239  0.83309753     0.30500
C172        C  0.97290410  0.11630781  0.80341126    -0.20400
C173        C  0.99806827  0.08748931  0.80866123    -0.08400
C174        C  0.52358571  0.08697914  0.84478153     0.30500
F175        F  0.54723316  0.05886380  0.85171731    -0.18900
H176        H  0.54426797  0.11387480  0.90224944     0.18800
H177        H  0.95319061  0.11720770  0.77558588     0.18800
F178        F  0.94921641  0.17215675  0.82612149    -0.18900
C179        C  0.39339911  0.46463162  0.69004899    -0.20400
C180        C  0.41606772  0.49518906  0.69240279    -0.08400
C181        C  0.39707294  0.02786316  0.68717112     0.30500
C182        C  0.35672403  0.03006450  0.68731639    -0.20400
C183        C  0.33389135  0.49983508  0.69122554    -0.08400
C184        C  0.35297315  0.46685826  0.68846173     0.30500
F185        F  0.33265745  0.43666852  0.68362485    -0.18900
H186        H  0.40676076  0.43886593  0.68788371     0.18800
H187        H  0.34340916  0.05573027  0.68345396     0.18800
F188        F  0.41742349  0.05790252  0.68142653    -0.18900
C189        C  0.10184626  0.02951655  0.69188406    -0.20400
C190        C  0.08388021  0.49634785  0.69346188    -0.08400
C191        C  0.10789554  0.46637098  0.68861659     0.30500
C192        C  0.14815365  0.46957381  0.68943148    -0.20400
C193        C  0.16602897  0.50258297  0.69395159    -0.08400
C194        C  0.14214021  0.03274609  0.69178795     0.30500
F195        F  0.15700825  0.06538886  0.68670721    -0.18900
H196        H  0.08443195  0.05328472  0.69022211     0.18800
H197        H  0.16560621  0.44593413  0.68595344     0.18800
F198        F  0.09296922  0.43411197  0.68040624    -0.18900
C199        C  0.27684306  0.38154970  0.09886214    -0.20400
C200        C  0.24928107  0.35454105  0.10137232    -0.08400
C201        C  0.22066753  0.35660261  0.13443787     0.30500
C202        C  0.22048285  0.38438571  0.16479076    -0.20400
C203        C  0.24855318  0.41081707  0.16294865    -0.08400
C204        C  0.27651900  0.40943467  0.12921485     0.30500
F205        F  0.30298211  0.43536579  0.12488303    -0.18900
H206        H  0.29884960  0.38112047  0.07339124     0.18800
H207        H  0.19869670  0.38486055  0.19048169     0.18800
F208        F  0.19278101  0.33183835  0.13770837    -0.18900
C209        C  0.27972639  0.10615767  0.14602673    -0.20400
C210        C  0.24856634  0.10392269  0.17576877    -0.08400
C211        C  0.21860261  0.12917975  0.17253430     0.30500
C212        C  0.21982456  0.15559166  0.14020445    -0.20400
C213        C  0.25076440  0.15748825  0.11021309    -0.08400
C214        C  0.28094792  0.13257305  0.11375591     0.30500
F215        F  0.31208432  0.13400444  0.08654191    -0.18900
H216        H  0.30320209  0.08724629  0.14739414     0.18800
H217        H  0.19625755  0.17445636  0.13843821     0.18800
F218        F  0.18856687  0.12908634  0.20135154    -0.18900
C219        C  0.22184418  0.47251429  0.46251194    -0.20400
C220        C  0.24689774  0.49495459  0.43954592    -0.08400
C221        C  0.27177880  0.01701448  0.46380533     0.30500
C222        C  0.27212890  0.01567873  0.51005685    -0.20400
C223        C  0.24759643  0.99275812  0.53292106    -0.08400
C224        C  0.22210094  0.47138697  0.50889153     0.30500
F225        F  0.19859390  0.44850294  0.53009856    -0.18900
H226        H  0.20264401  0.45534902  0.44437810     0.18800
H227        H  0.29114835  0.03300523  0.52820404     0.18800
F228        F  0.29470670  0.04054913  0.44289655    -0.18900
C229        C  0.02486968  0.37377767  0.10213046    -0.20400
C230        C  0.99655379  0.34745354  0.10358285    -0.08400
C231        C  0.46747223  0.34992237  0.13612103     0.30500
C232        C  0.46741915  0.37770936  0.16675586    -0.20400
C233        C  0.99625851  0.40357614  0.16581732    -0.08400
C234        C  0.02479458  0.40149105  0.13268812     0.30500
F235        F  0.05214387  0.42667837  0.12894520    -0.18900
H236        H  0.04738151  0.37293810  0.07725418     0.18800
H237        H  0.44510740  0.37866209  0.19183671     0.18800
F238        F  0.43883709  0.32578134  0.13821474    -0.18900
C239        C  0.02407160  0.09355954  0.13826802    -0.20400
C240        C  0.99862861  0.09681419  0.17421196    -0.08400
C241        C  0.47428302  0.12647909  0.17682497     0.30500
C242        C  0.47548246  0.15246125  0.14410900    -0.20400
C243        C  0.00095808  0.14944861  0.10797276    -0.08400
C244        C  0.02518860  0.11942167  0.10529173     0.30500
F245        F  0.05002724  0.11487881  0.07095858    -0.18900
H246        H  0.04293239  0.07077725  0.13561148     0.18800
H247        H  0.45656354  0.17515933  0.14737393     0.18800
F248        F  0.45038115  0.13099412  0.21201944    -0.18900
C249        C  0.35303916  0.03349838  0.28569437    -0.20400
C250        C  0.33173558  0.50253601  0.28037513    -0.08400
C251        C  0.35219088  0.47024515  0.28280104     0.30500
C252        C  0.39267694  0.46954210  0.28204861    -0.20400
C253        C  0.41397799  0.50089974  0.28071716    -0.08400
C254        C  0.39342135  0.03279300  0.28695567     0.30500
F255        F  0.41192478  0.06326995  0.29631797    -0.18900
H256        H  0.33842437  0.05853313  0.29026750     0.18800
H257        H  0.40740553  0.44429655  0.28297232     0.18800
F258        F  0.33320297  0.43928701  0.28669455    -0.18900
C259        C  0.14495310  0.46975398  0.28010466    -0.20400
C260        C  0.16404607  0.50243948  0.27898460    -0.08400
C261        C  0.14153205  0.03315297  0.28528784     0.30500
C262        C  0.10124134  0.03135865  0.28550254    -0.20400
C263        C  0.08185933  0.49888121  0.28003001    -0.08400
C264        C  0.10449261  0.46788021  0.28089634     0.30500
F265        F  0.08779273  0.43577863  0.28382972    -0.18900
H266        H  0.16142576  0.44541125  0.28070677     0.18800
H267        H  0.08518549  0.05555545  0.29081229     0.18800
F268        F  0.15807539  0.06478119  0.29332017    -0.18900
C269        C  0.02567289  0.47588027  0.51169970    -0.20400
C270        C  0.49889988  0.49782750  0.53350837    -0.08400
C271        C  0.47144783  0.01672452  0.50815031     0.30500
C272        C  0.47090991  0.01340228  0.46206136    -0.20400
C273        C  0.49790366  0.99176108  0.44013315    -0.08400
C274        C  0.02501987  0.47242607  0.46552443     0.30500
F275        F  0.05041856  0.45002792  0.44574177    -0.18900
H276        H  0.04670918  0.46091804  0.53055929     0.18800
H277        H  0.44991521  0.02850612  0.44332757     0.18800
F278        F  0.44569413  0.03880695  0.52790373    -0.18900
C279        C  0.03760097  0.99841300  0.27762361     0.30900
C280        C  0.45828955  0.99970070  0.27791696     0.31000
C281        C  0.01805278  0.99316014  0.32263138    -0.05200
C282        C  0.01851683  0.53235889  0.26036786    -0.06000
C283        C  0.01777224  0.97047200  0.24832879    -0.05900
C284        C  0.47798940  0.99386498  0.32270611    -0.05300
C285        C  0.47798032  0.53316410  0.26053693    -0.06000
C286        C  0.47737562  0.97102812  0.24859140    -0.05900
C287        C  0.46606482  0.49160605  0.36615143    -0.31300
N288        N  0.49783194  0.48954288  0.39253563     0.15200
C289        C  0.02970886  0.49027349  0.36622334    -0.31300
H290        H  0.05921846  0.49105706  0.37793678     0.17100
C291        C  0.46694980  0.55649806  0.22763679    -0.30300
N292        N  0.99871476  0.57078561  0.20910290     0.13900
C293        C  0.03008800  0.55505370  0.22719439    -0.30300
C294        C  0.46538333  0.94651907  0.21781933    -0.30600
N295        N  0.99700077  0.93106379  0.19911969     0.14400
H296        H  0.43584380  0.94117447  0.20846203     0.17100
C297        C  0.02902055  0.94581921  0.21725631    -0.30600
H298        H  0.05842340  0.93925271  0.20831427     0.17100
H299        H  0.05924241  0.55819150  0.21505428     0.17100
H300        H  0.43652254  0.49283060  0.37775107     0.17100
H301        H  0.43790860  0.56050441  0.21530665     0.17100
C302        C  0.20826721  0.50373278  0.27682130     0.30900
C303        C  0.28752174  0.50367988  0.27756457     0.31000
C304        C  0.22761012  0.49787096  0.32186334    -0.05200
C305        C  0.22815353  0.97583562  0.24746872    -0.06000
C306        C  0.22741121  0.53798969  0.26007133    -0.05900
C307        C  0.26765084  0.49796037  0.32221909    -0.05300
C308        C  0.26837751  0.97582380  0.24758375    -0.06000
C309        C  0.26810301  0.53806575  0.26080328    -0.05900
C310        C  0.27930650  0.99661838  0.36577716    -0.31300
N311        N  0.24734250  0.99543361  0.39183052     0.15200
C312        C  0.21563436  0.99611960  0.36530935    -0.31300
H313        H  0.18606368  0.99684618  0.37687558     0.17100
C314        C  0.28027281  0.95245152  0.21527276    -0.30300
N315        N  0.24856199  0.93793301  0.19627618     0.13900
C316        C  0.21667734  0.95242845  0.21532445    -0.30300
C317        C  0.27956955  0.56194064  0.22891309    -0.30600
N318        N  0.24809429  0.57724552  0.21004088     0.14400
H319        H  0.30896913  0.56611914  0.21827344     0.17100
C320        C  0.21643644  0.56147483  0.22723288    -0.30600
H321        H  0.18756434  0.56435481  0.21399066     0.17100
H322        H  0.18727635  0.94717208  0.20529309     0.17100
H323        H  0.30877322  0.99715760  0.37767507     0.17100
H324        H  0.30979906  0.94656822  0.20613337     0.17100
C325        C  0.03959356  0.49423434  0.69547104     0.30900
C326        C  0.46029909  0.49349363  0.69526027     0.31000
C327        C  0.01989063  0.50163286  0.65095126    -0.05200
C328        C  0.02117917  0.95937852  0.71048731    -0.06000
C329        C  0.01941289  0.52045861  0.72705409    -0.05900
C330        C  0.47981634  0.50138126  0.65102549    -0.05300
C331        C  0.48029671  0.95874324  0.71002059    -0.06000
C332        C  0.47920219  0.52009468  0.72692658    -0.05900
C333        C  0.46799291  0.00100562  0.60746199    -0.31300
N334        N  0.49964011  0.00136358  0.58094041     0.15200
C335        C  0.03158951  0.00116625  0.60716274    -0.31300
H336        H  0.06103236  0.99919750  0.59538373     0.17100
C337        C  0.46961239  0.93455065  0.74193345    -0.30300
N338        N  0.00156061  0.92012549  0.76046634     0.13900
C339        C  0.03279650  0.93612406  0.74317353    -0.30300
C340        C  0.46689290  0.54429126  0.75808260    -0.30600
N341        N  0.99839731  0.55923332  0.77692787     0.14400
H342        H  0.43729393  0.55038901  0.76684327     0.17100
C343        C  0.03054374  0.54461933  0.75856971    -0.30600
H344        H  0.05983977  0.55141907  0.76730267     0.17100
H345        H  0.06187311  0.93288615  0.75569832     0.17100
H346        H  0.43856153  0.99809314  0.59606049     0.17100
H347        H  0.44068265  0.93027131  0.75419578     0.17100
C348        C  0.21046955  0.00400856  0.69543082     0.30900
C349        C  0.28979140  0.00224314  0.69392124     0.31000
C350        C  0.22935391  0.99616647  0.65059735    -0.05200
C351        C  0.23040292  0.53851261  0.71050736    -0.06000
C352        C  0.23004245  0.97693883  0.72614756    -0.05900
C353        C  0.26939814  0.99540415  0.64981914    -0.05300
C354        C  0.27130361  0.53764826  0.70967872    -0.06000
C355        C  0.27023396  0.97615786  0.72551052    -0.05900
C356        C  0.28036100  0.49323188  0.60632085    -0.31300
N357        N  0.24811030  0.49202539  0.58070141     0.15200
C358        C  0.21671545  0.49393452  0.60759774    -0.31300
H359        H  0.18708629  0.49580090  0.59637240     0.17100
C360        C  0.28345737  0.56116366  0.74189885    -0.30300
N361        N  0.25238674  0.57707898  0.76056043     0.13900
C362        C  0.22030293  0.56236330  0.74334364    -0.30300
C363        C  0.28201286  0.95218946  0.75695088    -0.30600
N364        N  0.25024340  0.93804385  0.77606058     0.14400
H365        H  0.31151810  0.94523696  0.76501255     0.17100
C366        C  0.21837673  0.95317141  0.75770017    -0.30600
H367        H  0.18892760  0.94766027  0.76721695     0.17100
H368        H  0.19174773  0.56622425  0.75712677     0.17100
H369        H  0.30966100  0.49385811  0.59393214     0.17100
H370        H  0.31280324  0.56458888  0.75325291     0.17100
Zn371      Zn  0.46963663  0.74677664  0.03940341     1.49700
Zn372      Zn  0.03088545  0.78967068  0.98487898     1.49400
Zn373      Zn  0.03419987  0.70432748  0.98648801     1.49100
Zn374      Zn  0.47012343  0.74501269  0.93157582     1.49500
O375        O  0.00116687  0.74629527  0.98565986    -1.83200
O376        O  0.47743865  0.79070630  0.07677663    -0.73800
O377        O  0.08667191  0.77794872  0.98539178    -0.73600
O378        O  0.02528553  0.67472353  0.04115264    -0.73100
O379        O  0.01968358  0.82085715  0.03730727    -0.73800
O380        O  0.47921418  0.70367094  0.07720528    -0.73400
O381        O  0.08948459  0.71915627  0.98510936    -0.74000
O382        O  0.47833265  0.70033311  0.89665672    -0.73400
O383        O  0.02154846  0.81829709  0.93008428    -0.74200
O384        O  0.02428427  0.67249883  0.93405229    -0.73500
O385        O  0.48069713  0.78613802  0.89117793    -0.74000
O386        O  0.41461824  0.74715200  0.94792894    -0.73900
O387        O  0.41445060  0.74679854  0.02189765    -0.73700
C388        C  0.99797496  0.81803290  0.07109273     0.78100
C389        C  0.10555697  0.74916877  0.98496265     0.78600
C390        C  0.00213281  0.67739035  0.07377050     0.77500
C391        C  0.00085997  0.67399685  0.90156809     0.77900
C392        C  0.00139353  0.81349174  0.89542660     0.79000
C393        C  0.39708827  0.74740300  0.98486869     0.78100
Zn394      Zn  0.28446411  0.79403868  0.98552667     1.49700
Zn395      Zn  0.28109601  0.70887824  0.98542644     1.49400
Zn396      Zn  0.21981421  0.75407508  0.03889130     1.49100
Zn397      Zn  0.22026883  0.75380366  0.93129865     1.49500
O398        O  0.25132235  0.75268049  0.98527759    -1.83200
O399        O  0.33929465  0.77897942  0.98578739    -0.73800
O400        O  0.27140555  0.68000667  0.04043291    -0.73600
O401        O  0.22727148  0.79925138  0.07328045    -0.73100
O402        O  0.33700551  0.72023403  0.98440266    -0.73800
O403        O  0.27495248  0.82555229  0.03782687    -0.73400
O404        O  0.23012964  0.71247443  0.07938935    -0.74000
O405        O  0.16457465  0.75182093  0.94775305    -0.73400
O406        O  0.27064651  0.67887117  0.93146677    -0.74800
O407        O  0.16457896  0.75161680  0.02170743    -0.73500
O408        O  0.23114833  0.71203916  0.89130005    -0.74000
O409        O  0.22881056  0.79836974  0.89642129    -0.73900
O410        O  0.27606157  0.82478170  0.93262528    -0.73700
C411        C  0.35559710  0.74892534  0.98490109     0.78100
C412        C  0.25090058  0.68483298  0.07495923     0.78600
C413        C  0.25049648  0.82488517  0.06920080     0.77500
C414        C  0.14711351  0.75083233  0.98474686     0.77900
C415        C  0.25101984  0.68394961  0.89633864     0.79000
C416        C  0.25219243  0.82385973  0.90068646     0.78100
C417        C  0.22225856  0.88372612  0.80586139    -0.20400
C418        C  0.25025485  0.91016217  0.80822902    -0.08400
C419        C  0.27857007  0.90834185  0.84154589     0.30500
C420        C  0.27914537  0.88014412  0.87122614    -0.20400
C421        C  0.25142610  0.85330854  0.86849053    -0.08400
C422        C  0.22269975  0.85559413  0.83556520     0.30500
F423        F  0.19482006  0.83084015  0.83201654    -0.18900
H424        H  0.20030535  0.88454037  0.78035014     0.18800
H425        H  0.30131152  0.87945798  0.89652399     0.18800
F426        F  0.30505229  0.93423885  0.84620594    -0.18900
C427        C  0.22782227  0.63298780  0.79092094    -0.20400
C428        C  0.25265855  0.60375273  0.79452347    -0.08400
C429        C  0.27707678  0.60108121  0.83155100     0.30500
C430        C  0.27633207  0.62718445  0.86438855    -0.20400
C431        C  0.25148634  0.65662482  0.86087819    -0.08400
C432        C  0.22726335  0.65927667  0.82343836     0.30500
F433        F  0.20272589  0.68701552  0.81819611    -0.18900
H434        H  0.20896367  0.63552681  0.76247085     0.18800
H435        H  0.29524128  0.62422072  0.89273103     0.18800
F436        F  0.30065425  0.57268909  0.83679564    -0.18900
C437        C  0.47881118  0.86365512  0.78947066    -0.20400
C438        C  0.00186032  0.89359849  0.79436432    -0.08400
C439        C  0.02535613  0.89675777  0.83207522     0.30500
C440        C  0.02519437  0.87053346  0.86453649    -0.20400
C441        C  0.00193089  0.84048898  0.85988236    -0.08400
C442        C  0.47901309  0.83714334  0.82153620     0.30500
F443        F  0.45672910  0.80838233  0.81480024    -0.18900
H444        H  0.46098670  0.86065599  0.76025731     0.18800
H445        H  0.04318454  0.87395155  0.89354198     0.18800
F446        F  0.04751598  0.92566452  0.83825958    -0.18900
C447        C  0.52428405  0.61506028  0.87489341    -0.20400
C448        C  0.99959124  0.64434450  0.86935398    -0.08400
C449        C  0.97356696  0.64443115  0.83334838     0.30500
C450        C  0.97273519  0.61603179  0.80377059    -0.20400
C451        C  0.99794481  0.58723937  0.80905644    -0.08400
C452        C  0.52352320  0.58683758  0.84512150     0.30500
F453        F  0.54721592  0.55876281  0.85210888    -0.18900
H454        H  0.54430184  0.61388593  0.90241874     0.18800
H455        H  0.95296687  0.61685154  0.77599325     0.18800
F456        F  0.94905011  0.67193637  0.82633652    -0.18900
C457        C  0.39355054  0.96455343  0.69010202    -0.20400
C458        C  0.41617483  0.99514656  0.69231737    -0.08400
C459        C  0.39700246  0.52794686  0.68749014     0.30500
C460        C  0.35665303  0.53019253  0.68770365    -0.20400
C461        C  0.33399674  0.99969932  0.69100445    -0.08400
C462        C  0.35311989  0.96673197  0.68841742     0.30500
F463        F  0.33284716  0.93651164  0.68364313    -0.18900
H464        H  0.40696004  0.93879599  0.68813440     0.18800
H465        H  0.34336797  0.55588542  0.68400365     0.18800
F466        F  0.41739316  0.55798261  0.68189921    -0.18900
C467        C  0.10171858  0.52953241  0.69208980    -0.20400
C468        C  0.08398199  0.99634867  0.69338617    -0.08400
C469        C  0.10795266  0.96634400  0.68855921     0.30500
C470        C  0.14821797  0.96952065  0.68925208    -0.20400
C471        C  0.16612808  0.00252551  0.69370051    -0.08400
C472        C  0.14201455  0.53279042  0.69204449     0.30500
F473        F  0.15686005  0.56544619  0.68699946    -0.18900
H474        H  0.08427896  0.55328854  0.69048225     0.18800
H475        H  0.16564490  0.94586380  0.68579228     0.18800
F476        F  0.09295810  0.93407415  0.68057082    -0.18900
C477        C  0.27676402  0.88153628  0.09896692    -0.20400
C478        C  0.24915980  0.85456417  0.10127864    -0.08400
C479        C  0.22045272  0.85657166  0.13424605     0.30500
C480        C  0.22026176  0.88424411  0.16475538    -0.20400
C481        C  0.24840982  0.91061408  0.16314325    -0.08400
C482        C  0.27642647  0.90931196  0.12945919     0.30500
F483        F  0.30294386  0.93521465  0.12531755    -0.18900
H484        H  0.29883203  0.88114913  0.07356541     0.18800
H485        H  0.19841918  0.88467470  0.19038409     0.18800
F486        F  0.19249223  0.83185520  0.13727489    -0.18900
C487        C  0.27959472  0.60610616  0.14600085    -0.20400
C488        C  0.24842415  0.60390395  0.17574045    -0.08400
C489        C  0.21847899  0.62917443  0.17246038     0.30500
C490        C  0.21974385  0.65558674  0.14012639    -0.20400
C491        C  0.25071487  0.65747644  0.11017354    -0.08400
C492        C  0.28086531  0.63253013  0.11373395     0.30500
F493        F  0.31203650  0.63396611  0.08657205    -0.18900
H494        H  0.30305941  0.58718459  0.14739814     0.18800
H495        H  0.19619794  0.67447250  0.13834555     0.18800
F496        F  0.18843820  0.62911279  0.20126999    -0.18900
C497        C  0.22210851  0.97244017  0.46233909    -0.20400
C498        C  0.24705597  0.99503502  0.43948075    -0.08400
C499        C  0.27171090  0.51689570  0.46382105     0.30500
C500        C  0.27205765  0.51566311  0.51009122    -0.20400
C501        C  0.24743479  0.49288635  0.53306155    -0.08400
C502        C  0.22236107  0.97121460  0.50869483     0.30500
F503        F  0.19893790  0.94821501  0.52982417    -0.18900
H504        H  0.20298872  0.95524642  0.44413467     0.18800
H505        H  0.29115980  0.53295991  0.52816699     0.18800
F506        F  0.29474752  0.54030244  0.44284599    -0.18900
C507        C  0.02510850  0.87364910  0.10245025    -0.20400
C508        C  0.99690953  0.84722441  0.10403748    -0.08400
C509        C  0.46794913  0.84956530  0.13674050     0.30500
C510        C  0.46787327  0.87736502  0.16735520    -0.20400
C511        C  0.99657448  0.90336316  0.16622940    -0.08400
C512        C  0.02501637  0.90136703  0.13299422     0.30500
F513        F  0.05223603  0.92665934  0.12912340    -0.18900
H514        H  0.04752844  0.87289845  0.07746185     0.18800
H515        H  0.44564616  0.87825124  0.19253876     0.18800
F516        F  0.43945037  0.82530030  0.13900218    -0.18900
C517        C  0.02462978  0.59357819  0.13870813    -0.20400
C518        C  0.99899667  0.59676668  0.17449097    -0.08400
C519        C  0.47459368  0.62640403  0.17698815     0.30500
C520        C  0.47585923  0.65237053  0.14426322    -0.20400
C521        C  0.00146289  0.64938728  0.10823395    -0.08400
C522        C  0.02582589  0.61944097  0.10573088     0.30500
F523        F  0.05086525  0.61497729  0.07157461    -0.18900
H524        H  0.04356945  0.57084260  0.13616462     0.18800
H525        H  0.45685178  0.67501750  0.14740851     0.18800
F526        F  0.45053589  0.63088918  0.21204853    -0.18900
C527        C  0.35302190  0.53362002  0.28565042    -0.20400
C528        C  0.33179974  0.00240110  0.28029329    -0.08400
C529        C  0.35229906  0.97012802  0.28267561     0.30500
C530        C  0.39278465  0.96947730  0.28194266    -0.20400
C531        C  0.41403490  0.00086472  0.28067137    -0.08400
C532        C  0.39340674  0.53286679  0.28690649     0.30500
F533        F  0.41194587  0.56333649  0.29620961    -0.18900
H534        H  0.33844783  0.55868063  0.29016063     0.18800
H535        H  0.40754762  0.94424935  0.28286636     0.18800
F536        F  0.33336995  0.93914112  0.28657900    -0.18900
C537        C  0.14493183  0.96986871  0.28044541    -0.20400
C538        C  0.16409092  0.00250956  0.27904055    -0.08400
C539        C  0.14143376  0.53300441  0.28554968     0.30500
C540        C  0.10115148  0.53112437  0.28592347    -0.20400
C541        C  0.08190214  0.99911064  0.27990516    -0.08400
C542        C  0.10446911  0.96807768  0.28119317     0.30500
F543        F  0.08768896  0.93603087  0.28445921    -0.18900
H544        H  0.16135479  0.94550240  0.28129610     0.18800
H545        H  0.08505743  0.55526310  0.29150361     0.18800
F546        F  0.15792473  0.56463842  0.29369115    -0.18900
C547        C  0.02592957  0.97642857  0.51157380    -0.20400
C548        C  0.49914756  0.99835808  0.53339205    -0.08400
C549        C  0.47118186  0.51616056  0.50825378     0.30500
C550        C  0.47066706  0.51286055  0.46216611    -0.20400
C551        C  0.49769106  0.49125890  0.44022883    -0.08400
C552        C  0.02526393  0.97296098  0.46541369     0.30500
F553        F  0.05065826  0.95055458  0.44563806    -0.18900
H554        H  0.04695610  0.96144924  0.53042615     0.18800
H555        H  0.44967839  0.52797721  0.44344073     0.18800
F556        F  0.44540854  0.53823126  0.52799413    -0.18900
C557        C  0.53755151  0.49817875  0.27774964     0.30900
C558        C  0.95823713  0.49965338  0.27798399     0.31000
C559        C  0.51796447  0.49287005  0.32273250    -0.05200
C560        C  0.51846806  0.03251825  0.26013132    -0.06000
C561        C  0.51765777  0.47034630  0.24832482    -0.05900
C562        C  0.97790015  0.49366242  0.32276942    -0.05300
C563        C  0.97792993  0.03322768  0.26034885    -0.06000
C564        C  0.97725521  0.47100492  0.24856617    -0.05900
C565        C  0.96619302  0.99189021  0.36610785    -0.31300
N566        N  0.99799087  0.98995832  0.39245435     0.15200
C567        C  0.52984287  0.99068966  0.36610823    -0.31300
H568        H  0.55935994  0.99155882  0.37778623     0.17100
C569        C  0.96677962  0.05651976  0.22746078    -0.30300
N570        N  0.49847204  0.07084083  0.20883030     0.13900
C571        C  0.52992241  0.05519603  0.22687974    -0.30300
C572        C  0.96519083  0.44666141  0.21762463    -0.30600
N573        N  0.49676926  0.43119255  0.19883087     0.14400
H574        H  0.93563091  0.44144003  0.20823535     0.17100
C575        C  0.52883074  0.44580240  0.21707148    -0.30600
H576        H  0.55821316  0.43921822  0.20807107     0.17100
H577        H  0.55904703  0.05839107  0.21467014     0.17100
H578        H  0.93666027  0.99307995  0.37774363     0.17100
H579        H  0.93770571  0.06047296  0.21520578     0.17100
C580        C  0.70831236  0.00370794  0.27684699     0.30900
C581        C  0.78758472  0.00354343  0.27751851     0.31000
C582        C  0.72768454  0.99804063  0.32189854    -0.05200
C583        C  0.72817622  0.47606850  0.24720050    -0.06000
C584        C  0.72752117  0.03784104  0.25983197    -0.05900
C585        C  0.76773501  0.99807916  0.32221882    -0.05300
C586        C  0.76839372  0.47611070  0.24735471    -0.06000
C587        C  0.76819509  0.03786239  0.26053138    -0.05900
C588        C  0.77917718  0.49648945  0.36580760    -0.31300
N589        N  0.74720291  0.49525512  0.39185674     0.15200
C590        C  0.71552193  0.49591800  0.36527803    -0.31300
H591        H  0.68594131  0.49667967  0.37680780     0.17100
C592        C  0.78035739  0.45279577  0.21499272    -0.30300
N593        N  0.74868064  0.43826364  0.19592906     0.13900
C594        C  0.71676415  0.45271041  0.21496812    -0.30300
C595        C  0.77970211  0.06181069  0.22876561    -0.30600
N596        N  0.74822999  0.07718795  0.20996726     0.14400
H597        H  0.80911242  0.06602146  0.21818443     0.17100
C598        C  0.71655300  0.06140207  0.22709384    -0.30600
H599        H  0.68767670  0.06435852  0.21389124     0.17100
H600        H  0.68737743  0.44738445  0.20494471     0.17100
H601        H  0.80863427  0.49711821  0.37772460     0.17100
H602        H  0.80990173  0.44689926  0.20593529     0.17100
C603        C  0.53970313  0.99425825  0.69543345     0.30900
C604        C  0.96040507  0.99351542  0.69521291     0.31000
C605        C  0.52000219  0.00129755  0.65083844    -0.05200
C606        C  0.52106255  0.45922101  0.71008963    -0.06000
C607        C  0.51951354  0.02072269  0.72667103    -0.05900
C608        C  0.97994521  0.00105683  0.65089166    -0.05300
C609        C  0.98017721  0.45861140  0.70961059    -0.06000
C610        C  0.97930283  0.02036635  0.72655312    -0.05900
C611        C  0.96785472  0.50088246  0.60761237    -0.31300
N612        N  0.99946901  0.50101279  0.58104853     0.15200
C613        C  0.53143421  0.50097324  0.60724058    -0.31300
H614        H  0.56085509  0.49872932  0.59546046     0.17100
C615        C  0.96948376  0.43422325  0.74128269    -0.30300
N616        N  0.50141892  0.41967095  0.75969445     0.13900
C617        C  0.53265785  0.43576753  0.74256188    -0.30300
C618        C  0.96700454  0.04460879  0.75765141    -0.30600
N619        N  0.49850806  0.05956364  0.77643318     0.14400
H620        H  0.93741103  0.05066403  0.76648312     0.17100
C621        C  0.53065135  0.04491994  0.75812379    -0.30600
H622        H  0.55994791  0.05165284  0.76693886     0.17100
H623        H  0.56171137  0.43251320  0.75514699     0.17100
H624        H  0.93843209  0.49772916  0.59628749     0.17100
H625        H  0.94056754  0.42994483  0.75358603     0.17100
C626        C  0.71036879  0.50407969  0.69567924     0.30900
C627        C  0.78968793  0.50238390  0.69414620     0.31000
C628        C  0.72924796  0.49631381  0.65081386    -0.05200
C629        C  0.73053412  0.03843701  0.71021423    -0.06000
C630        C  0.72998031  0.47698910  0.72635441    -0.05900
C631        C  0.76928931  0.49558982  0.65001652    -0.05300
C632        C  0.77143262  0.03754181  0.70937998    -0.06000
C633        C  0.77016867  0.47624477  0.72570339    -0.05900
C634        C  0.78048421  0.99300452  0.60614989    -0.31300
N635        N  0.74823979  0.99181511  0.58053457     0.15200
C636        C  0.71683015  0.99376600  0.60739341    -0.31300
H637        H  0.68721109  0.99567429  0.59613998     0.17100
C638        C  0.78362432  0.06107928  0.74155554    -0.30300
N639        N  0.75257931  0.07702481  0.76023479     0.13900
C640        C  0.72047621  0.06231205  0.74304311    -0.30300
C641        C  0.78198990  0.45227118  0.75713129    -0.30600
N642        N  0.75024648  0.43808241  0.77625426     0.14400
H643        H  0.81150862  0.44534468  0.76516271     0.17100
C644        C  0.71835884  0.45319828  0.75790968    -0.30600
H645        H  0.68891753  0.44766708  0.76743758     0.17100
H646        H  0.69192897  0.06618982  0.75684051     0.17100
H647        H  0.80978651  0.99362464  0.59376741     0.17100
H648        H  0.81298470  0.06449595  0.75286078     0.17100
Zn649      Zn  0.96934567  0.24691730  0.03914328     1.49700
Zn650      Zn  0.53064212  0.28972776  0.98455228     1.49400
Zn651      Zn  0.53398361  0.20440938  0.98639409     1.49100
Zn652      Zn  0.96988722  0.24494496  0.93136394     1.49500
O653        O  0.50092411  0.24635505  0.98544514    -1.83200
O654        O  0.97710894  0.29090775  0.07641604    -0.73800
O655        O  0.58648226  0.27802603  0.98509832    -0.73600
O656        O  0.52487054  0.17483488  0.04099054    -0.73100
O657        O  0.51939057  0.32099066  0.03692803    -0.73800
O658        O  0.97877445  0.20380234  0.07700968    -0.73400
O659        O  0.58927844  0.21923561  0.98524493    -0.74000
O660        O  0.97830144  0.20031861  0.89654986    -0.73400
O661        O  0.52121545  0.31823071  0.92966181    -0.74200
O662        O  0.52426325  0.17253314  0.93394365    -0.73500
O663        O  0.98031552  0.28602056  0.89087686    -0.74000
O664        O  0.91436583  0.24687381  0.94759395    -0.73900
O665        O  0.91421452  0.24693195  0.02155899    -0.73700
C666        C  0.49765140  0.31821428  0.07069928     0.78100
C667        C  0.60536801  0.24923908  0.98492164     0.78600
C668        C  0.50166879  0.17748529  0.07356026     0.77500
C669        C  0.50085750  0.17402180  0.90144271     0.77900
C670        C  0.50101405  0.31337245  0.89504689     0.79000
C671        C  0.89684900  0.24728998  0.98453559     0.78100
Zn672      Zn  0.78430304  0.29391071  0.98560571     1.49700
Zn673      Zn  0.78091212  0.20873480  0.98532083     1.49400
Zn674      Zn  0.71966798  0.25403847  0.03893175     1.49100
Zn675      Zn  0.72015273  0.25367536  0.93125993     1.49500
O676        O  0.75114800  0.25256372  0.98527704    -1.83200
O677        O  0.83907239  0.27882160  0.98573119    -0.73800
O678        O  0.77138331  0.17996268  0.04042469    -0.73600
O679        O  0.72723117  0.29921783  0.07343161    -0.73100
O680        O  0.83679841  0.22008190  0.98401567    -0.73800
O681        O  0.77495980  0.32540579  0.03795153    -0.73400
O682        O  0.73003669  0.21239546  0.07935126    -0.74000
O683        O  0.66443233  0.25177312  0.94775822    -0.73400
O684        O  0.77044610  0.17863618  0.93143873    -0.74800
O685        O  0.66439545  0.25165745  0.02172453    -0.73500
O686        O  0.73108535  0.21187984  0.89120411    -0.74000
O687        O  0.72878158  0.29828211  0.89643732    -0.73900
O688        O  0.77592802  0.32472046  0.93279290    -0.73700
C689        C  0.85537379  0.24877807  0.98460892     0.78100
C690        C  0.75087886  0.18479185  0.07495101     0.78600
C691        C  0.75053270  0.32480054  0.06935098     0.77500
C692        C  0.64694314  0.25086656  0.98474701     0.77900
C693        C  0.75091960  0.18376199  0.89625206     0.79000
C694        C  0.75212491  0.32379765  0.90079480     0.78100
C695        C  0.72220307  0.38379575  0.80610159    -0.20400
C696        C  0.75028399  0.41016482  0.80839553    -0.08400
C697        C  0.77866964  0.40824927  0.84163768     0.30500
C698        C  0.77921404  0.38003293  0.87130386    -0.20400
C699        C  0.75139774  0.35327399  0.86863229    -0.08400
C700        C  0.72260917  0.35565795  0.83579766     0.30500
F701        F  0.69461344  0.33100481  0.83235386    -0.18900
H702        H  0.70019058  0.38467171  0.78066195     0.18800
H703        H  0.80143263  0.37927049  0.89653887     0.18800
F704        F  0.80524600  0.43407063  0.84625535    -0.18900
C705        C  0.72781840  0.13280353  0.79078734    -0.20400
C706        C  0.75287211  0.10370611  0.79420659    -0.08400
C707        C  0.77747944  0.10116677  0.83109516     0.30500
C708        C  0.77662348  0.12721317  0.86401694    -0.20400
C709        C  0.75150603  0.15648320  0.86071513    -0.08400
C710        C  0.72716905  0.15904252  0.82336923     0.30500
F711        F  0.70240877  0.18663437  0.81829824    -0.18900
H712        H  0.70883510  0.13526802  0.76243686     0.18800
H713        H  0.79566781  0.12434590  0.89225566     0.18800
F714        F  0.80135255  0.07295505  0.83614015    -0.18900
C715        C  0.97855363  0.36328699  0.78883855    -0.20400
C716        C  0.50167959  0.39318507  0.79363820    -0.08400
C717        C  0.52512457  0.39641910  0.83137538     0.30500
C718        C  0.52487244  0.37029883  0.86395235    -0.20400
C719        C  0.50155257  0.34028632  0.85941038    -0.08400
C720        C  0.97864492  0.33687870  0.82104513     0.30500
F721        F  0.95626258  0.30815995  0.81444987    -0.18900
H722        H  0.96073861  0.36024827  0.75962396     0.18800
H723        H  0.54284345  0.37377491  0.89296184     0.18800
F724        F  0.54731180  0.42531668  0.83748504    -0.18900
C725        C  0.02432353  0.11512136  0.87468222    -0.20400
C726        C  0.49964583  0.14443163  0.86915673    -0.08400
C727        C  0.47369775  0.14463075  0.83307835     0.30500
C728        C  0.47290200  0.11631694  0.80338989    -0.20400
C729        C  0.49806386  0.08749679  0.80864216    -0.08400
C730        C  0.02359433  0.08697371  0.84479694     0.30500
F731        F  0.04724481  0.05886000  0.85173010    -0.18900
H732        H  0.04428152  0.11387298  0.90226023     0.18800
H733        H  0.45319139  0.11721833  0.77556184     0.18800
F734        F  0.44921543  0.17216686  0.82610042    -0.18900
C735        C  0.89340123  0.46464176  0.69004523    -0.20400
C736        C  0.91606859  0.49519944  0.69241002    -0.08400
C737        C  0.89707098  0.02787084  0.68718326     0.30500
C738        C  0.85672171  0.03006981  0.68732687    -0.20400
C739        C  0.83389167  0.49984257  0.69122278    -0.08400
C740        C  0.85297541  0.46686712  0.68845385     0.30500
F741        F  0.83266151  0.43667718  0.68360910    -0.18900
H742        H  0.90676408  0.43887684  0.68787504     0.18800
H743        H  0.84340557  0.05573546  0.68346921     0.18800
F744        F  0.91741952  0.05791265  0.68144946    -0.18900
C745        C  0.60184447  0.02950750  0.69188346    -0.20400
C746        C  0.58387948  0.49634315  0.69346159    -0.08400
C747        C  0.60789556  0.46636667  0.68861673     0.30500
C748        C  0.64815373  0.46956987  0.68943411    -0.20400
C749        C  0.66602835  0.50257925  0.69395481    -0.08400
C750        C  0.64213806  0.03273750  0.69178959     0.30500
F751        F  0.65700557  0.06538046  0.68670871    -0.18900
H752        H  0.58443017  0.05327545  0.69021818     0.18800
H753        H  0.66560679  0.44593055  0.68595633     0.18800
F754        F  0.59296991  0.43410772  0.68040436    -0.18900
C755        C  0.77685882  0.38153604  0.09888074    -0.20400
C756        C  0.74929979  0.35452512  0.10139589    -0.08400
C757        C  0.72069092  0.35658476  0.13446724     0.30500
C758        C  0.72050324  0.38437224  0.16481467    -0.20400
C759        C  0.74856729  0.41080879  0.16296298    -0.08400
C760        C  0.77653278  0.40942424  0.12922890     0.30500
F761        F  0.80299229  0.43535771  0.12489059    -0.18900
H762        H  0.79886314  0.38110749  0.07340730     0.18800
H763        H  0.69871886  0.38484764  0.19050763     0.18800
F764        F  0.69281055  0.33181556  0.13774698    -0.18900
C765        C  0.77972817  0.10614312  0.14602008    -0.20400
C766        C  0.74856830  0.10391388  0.17576338    -0.08400
C767        C  0.71860596  0.12917159  0.17252417     0.30500
C768        C  0.71983100  0.15558106  0.14019224    -0.20400
C769        C  0.75077202  0.15747438  0.11020240    -0.08400
C770        C  0.78095213  0.13255570  0.11374562     0.30500
F771        F  0.81208715  0.13398092  0.08652891    -0.18900
H772        H  0.80320183  0.08722965  0.14738976     0.18800
H773        H  0.69626552  0.17444724  0.13842401     0.18800
F774        F  0.68856872  0.12908181  0.20133932    -0.18900
C775        C  0.72182292  0.47254238  0.46250839    -0.20400
C776        C  0.74688540  0.49497462  0.43954260    -0.08400
C777        C  0.77177716  0.01700998  0.46380853     0.30500
C778        C  0.77212710  0.01567446  0.51005990    -0.20400
C779        C  0.74758985  0.99275849  0.53292458    -0.08400
C780        C  0.72208091  0.47141241  0.50888788     0.30500
F781        F  0.69856527  0.44853477  0.53009327    -0.18900
H782        H  0.70261578  0.45538370  0.44437438     0.18800
H783        H  0.79115069  0.03299750  0.52820655     0.18800
F784        F  0.79471009  0.04054051  0.44289984    -0.18900
C785        C  0.52487297  0.37377474  0.10213211    -0.20400
C786        C  0.49656087  0.34744727  0.10359052    -0.08400
C787        C  0.96745997  0.34993197  0.13610685     0.30500
C788        C  0.96740735  0.37771745  0.16674386    -0.20400
C789        C  0.49626533  0.40357236  0.16582151    -0.08400
C790        C  0.52479798  0.40148908  0.13268847     0.30500
F791        F  0.55214335  0.42667949  0.12894026    -0.18900
H792        H  0.54738131  0.37293742  0.07725158     0.18800
H793        H  0.94509214  0.37867197  0.19182057     0.18800
F794        F  0.93881958  0.32579560  0.13819207    -0.18900
C795        C  0.52405940  0.09354254  0.13824646    -0.20400
C796        C  0.49861973  0.09679912  0.17419327    -0.08400
C797        C  0.97429063  0.12649344  0.17684218     0.30500
C798        C  0.97548927  0.15247494  0.14412501    -0.20400
C799        C  0.50094976  0.14943446  0.10795550    -0.08400
C800        C  0.52517611  0.11940490  0.10527020     0.30500
F801        F  0.55001075  0.11486017  0.07093359    -0.18900
H802        H  0.54291824  0.07075898  0.13558836     0.18800
H803        H  0.95656813  0.17517166  0.14738746     0.18800
F804        F  0.95038755  0.13100801  0.21203566    -0.18900
C805        C  0.85303813  0.03350061  0.28569540    -0.20400
C806        C  0.83173467  0.50254478  0.28037758    -0.08400
C807        C  0.85218796  0.47025303  0.28280610     0.30500
C808        C  0.89267393  0.46954764  0.28205198    -0.20400
C809        C  0.91397697  0.50090404  0.28071813    -0.08400
C810        C  0.89342041  0.03279651  0.28695386     0.30500
F811        F  0.91192254  0.06327436  0.29631457    -0.18900
H812        H  0.83842311  0.05853522  0.29026871     0.18800
H813        H  0.90740091  0.44430134  0.28297641     0.18800
F814        F  0.83319792  0.43929622  0.28670266    -0.18900
C815        C  0.64495501  0.46976041  0.28009602    -0.20400
C816        C  0.66404616  0.50244669  0.27897635    -0.08400
C817        C  0.64152980  0.03315551  0.28528899     0.30500
C818        C  0.60123889  0.03136033  0.28550098    -0.20400
C819        C  0.58186012  0.49888479  0.28002981    -0.08400
C820        C  0.60449493  0.46788483  0.28089160     0.30500
F821        F  0.58779699  0.43578246  0.28382540    -0.18900
H822        H  0.66142886  0.44541832  0.28069627     0.18800
H823        H  0.58518163  0.05555683  0.29080753     0.18800
F824        F  0.65807204  0.06478400  0.29332305    -0.18900
C825        C  0.52567378  0.47587505  0.51169643    -0.20400
C826        C  0.99889650  0.49783020  0.53351197    -0.08400
C827        C  0.97144433  0.01672573  0.50814900     0.30500
C828        C  0.97090662  0.01340069  0.46206021    -0.20400
C829        C  0.99790456  0.99176295  0.44013314    -0.08400
C830        C  0.52502005  0.47242084  0.46552146     0.30500
F831        F  0.55041615  0.45002047  0.44573841    -0.18900
H832        H  0.54670820  0.46091073  0.53055612     0.18800
H833        H  0.94990852  0.02850001  0.44332572     0.18800
F834        F  0.94568636  0.03880512  0.52790038    -0.18900
C835        C  0.53760022  0.99841191  0.27762324     0.30900
C836        C  0.95829006  0.99970490  0.27791653     0.31000
C837        C  0.51805254  0.99316424  0.32263234    -0.05200
C838        C  0.51851657  0.53236059  0.26037222    -0.06000
C839        C  0.51777262  0.97046597  0.24833493    -0.05900
C840        C  0.97798960  0.99386229  0.32270497    -0.05300
C841        C  0.97798080  0.53316385  0.26053337    -0.06000
C842        C  0.97737524  0.97103587  0.24858484    -0.05900
C843        C  0.96606371  0.49161078  0.36615287    -0.31300
N844        N  0.99783066  0.48954674  0.39253750     0.15200
C845        C  0.52971016  0.49027099  0.36622187    -0.31300
H846        H  0.55921959  0.49105639  0.37793557     0.17100
C847        C  0.96695031  0.55649820  0.22763360    -0.30300
N848        N  0.49871430  0.57078590  0.20910705     0.13900
C849        C  0.53008757  0.55505560  0.22719950    -0.30300
C850        C  0.96538183  0.94653004  0.21780941    -0.30600
N851        N  0.49700293  0.93105264  0.19913140     0.14400
H852        H  0.93584193  0.94118676  0.20845242     0.17100
C853        C  0.52902198  0.94581125  0.21726546    -0.30600
H854        H  0.55842502  0.93924639  0.20832272     0.17100
H855        H  0.55924190  0.55819373  0.21505924     0.17100
H856        H  0.93652140  0.49283536  0.37775215     0.17100
H857        H  0.93790879  0.56050576  0.21530505     0.17100
C858        C  0.70826699  0.50374089  0.27681397     0.30900
C859        C  0.78752096  0.50368965  0.27756391     0.31000
C860        C  0.72760693  0.49787605  0.32185673    -0.05200
C861        C  0.72815227  0.97583948  0.24746814    -0.06000
C862        C  0.72741063  0.53800008  0.26007114    -0.05900
C863        C  0.76764740  0.49796584  0.32221605    -0.05300
C864        C  0.76837630  0.97582737  0.24758410    -0.06000
C865        C  0.76810292  0.53807691  0.26080622    -0.05900
C866        C  0.77930304  0.99661502  0.36578130    -0.31300
N867        N  0.74733817  0.99543143  0.39183372     0.15200
C868        C  0.71563094  0.99611825  0.36531137    -0.31300
H869        H  0.68605993  0.99684725  0.37687643     0.17100
C870        C  0.78027204  0.95244942  0.21527985    -0.30300
N871        N  0.74856161  0.93792770  0.19628635     0.13900
C872        C  0.71667646  0.95242584  0.21533050    -0.30300
C873        C  0.77957038  0.56194894  0.22891319    -0.30600
N874        N  0.74809599  0.57725108  0.21003643     0.14400
H875        H  0.80897010  0.56612567  0.21827293     0.17100
C876        C  0.71643746  0.56148252  0.22722917    -0.30600
H877        H  0.68756617  0.56436040  0.21398375     0.17100
H878        H  0.68727561  0.94716535  0.20530202     0.17100
H879        H  0.80876939  0.99715433  0.37768010     0.17100
H880        H  0.80979839  0.94656319  0.20614369     0.17100
C881        C  0.53959270  0.49422884  0.69546897     0.30900
C882        C  0.96030011  0.49350299  0.69526575     0.31000
C883        C  0.51989074  0.50162286  0.65094763    -0.05200
C884        C  0.52117783  0.95937181  0.71049519    -0.06000
C885        C  0.51940920  0.52045493  0.72704775    -0.05900
C886        C  0.97981615  0.50139331  0.65103083    -0.05300
C887        C  0.98029783  0.95874994  0.71001300    -0.06000
C888        C  0.97920589  0.52010006  0.72693498    -0.05900
C889        C  0.96799330  0.00101715  0.60746312    -0.31300
N890        N  0.99964036  0.00137415  0.58094097     0.15200
C891        C  0.53158944  0.00115405  0.60716194    -0.31300
H892        H  0.56103228  0.99918776  0.59538248     0.17100
C893        C  0.96961372  0.93455611  0.74192447    -0.30300
N894        N  0.50155947  0.92012041  0.76047594     0.13900
C895        C  0.53279554  0.93611813  0.74318192    -0.30300
C896        C  0.96689936  0.54429320  0.75809612    -0.30600
N897        N  0.49838933  0.55923408  0.77691444     0.14400
H898        H  0.93730105  0.55039140  0.76685937     0.17100
C899        C  0.53053719  0.54461924  0.75856041    -0.30600
H900        H  0.55983250  0.55142005  0.76729533     0.17100
H901        H  0.56187252  0.93287959  0.75570542     0.17100
H902        H  0.93856222  0.99810114  0.59606228     0.17100
H903        H  0.94068410  0.93027682  0.75418730     0.17100
C904        C  0.71046767  0.00400277  0.69543498     0.30900
C905        C  0.78978990  0.00224340  0.69392385     0.31000
C906        C  0.72935187  0.99616261  0.65060151    -0.05200
C907        C  0.73039974  0.53851097  0.71050917    -0.06000
C908        C  0.73004328  0.97693423  0.72615037    -0.05900
C909        C  0.76939615  0.99540318  0.64982202    -0.05300
C910        C  0.77130031  0.53764997  0.70967847    -0.06000
C911        C  0.77023502  0.97615641  0.72551294    -0.05900
C912        C  0.78035667  0.49324107  0.60631663    -0.31300
N913        N  0.74810440  0.49203531  0.58069908     0.15200
C914        C  0.71671135  0.49393935  0.60759859    -0.31300
H915        H  0.68708127  0.49580627  0.59637634     0.17100
C916        C  0.78345257  0.56116612  0.74189820    -0.30300
N917        N  0.75238097  0.57707896  0.76056041     0.13900
C918        C  0.72029804  0.56236095  0.74334538    -0.30300
C919        C  0.78201620  0.95218683  0.75695052    -0.30600
N920        N  0.75024786  0.93803759  0.77605803     0.14400
H921        H  0.81152194  0.94523542  0.76501133     0.17100
C922        C  0.71837972  0.95316385  0.75769992    -0.30600
H923        H  0.68893117  0.94764901  0.76721569     0.17100
H924        H  0.69174294  0.56621989  0.75712965     0.17100
H925        H  0.80965584  0.49387123  0.59392596     0.17100
H926        H  0.81279798  0.56459349  0.75325253     0.17100
Zn927      Zn  0.96963628  0.74678503  0.03939915     1.49700
Zn928      Zn  0.53088770  0.78966230  0.98488751     1.49400
Zn929      Zn  0.53420022  0.70431912  0.98648527     1.49100
Zn930      Zn  0.97012659  0.74501798  0.93156903     1.49500
O931        O  0.50116710  0.74628757  0.98566394    -1.83200
O932        O  0.97743903  0.79071558  0.07677005    -0.73800
O933        O  0.58667384  0.77793949  0.98539954    -0.73600
O934        O  0.52528831  0.67471487  0.04115039    -0.73100
O935        O  0.51968789  0.82084641  0.03731901    -0.73800
O936        O  0.97920786  0.70367710  0.07720415    -0.73400
O937        O  0.58948667  0.71914715  0.98510338    -0.74000
O938        O  0.97833959  0.70033712  0.89665585    -0.73400
O939        O  0.52155088  0.81829135  0.93009441    -0.74200
O940        O  0.52427864  0.67249205  0.93404785    -0.73500
O941        O  0.98069907  0.78614089  0.89116610    -0.74000
O942        O  0.91462130  0.74715716  0.94791890    -0.73900
O943        O  0.91445236  0.74681251  0.02188798    -0.73700
C944        C  0.49797751  0.81802224  0.07110301     0.78100
C945        C  0.60555914  0.74915981  0.98496324     0.78600
C946        C  0.50213776  0.67738359  0.07377015     0.77500
C947        C  0.50085241  0.67399190  0.90156534     0.77900
C948        C  0.50139357  0.81348774  0.89543804     0.79000
C949        C  0.89709097  0.74741351  0.98485838     0.78100
Zn950      Zn  0.78446280  0.79404065  0.98552793     1.49700
Zn951      Zn  0.78110477  0.70888079  0.98541523     1.49400
Zn952      Zn  0.71981908  0.75406990  0.03888761     1.49100
Zn953      Zn  0.72026968  0.75380183  0.93129668     1.49500
O954        O  0.75132571  0.75268006  0.98527371    -1.83200
O955        O  0.83929517  0.77898678  0.98578714    -0.73800
O956        O  0.77142214  0.68000344  0.04041840    -0.73600
O957        O  0.72727584  0.79924169  0.07328936    -0.73100
O958        O  0.83701134  0.72024151  0.98438434    -0.73800
O959        O  0.77494878  0.82555093  0.03783179    -0.73400
O960        O  0.73013932  0.71246533  0.07937308    -0.74000
O961        O  0.66457591  0.75181579  0.94775173    -0.73400
O962        O  0.77065413  0.67887533  0.93145658    -0.74800
O963        O  0.66458268  0.75160945  0.02170594    -0.73500
O964        O  0.73114774  0.71203973  0.89129650    -0.74000
O965        O  0.72881164  0.79836555  0.89641792    -0.73900
O966        O  0.77605834  0.82478103  0.93262574    -0.73700
C967        C  0.85560016  0.74893404  0.98489048     0.78100
C968        C  0.75091341  0.68482604  0.07494246     0.78600
C969        C  0.75049753  0.82487814  0.06921048     0.77500
C970        C  0.64711592  0.75082459  0.98474609     0.77900
C971        C  0.75102261  0.68395209  0.89633194     0.79000
C972        C  0.75219258  0.82385602  0.90068375     0.78100
C973        C  0.72227120  0.88371270  0.80584546    -0.20400
C974        C  0.75026133  0.91015351  0.80822214    -0.08400
C975        C  0.77857121  0.90833711  0.84154488     0.30500
C976        C  0.77914473  0.88014044  0.87122608    -0.20400
C977        C  0.75142963  0.85330173  0.86848436    -0.08400
C978        C  0.72271130  0.85558098  0.83554917     0.30500
F979        F  0.69483856  0.83082130  0.83199069    -0.18900
H980        H  0.70032340  0.88452373  0.78032787     0.18800
H981        H  0.80130566  0.87945799  0.89653009     0.18800
F982        F  0.80504899  0.93423731  0.84621015    -0.18900
C983        C  0.72781931  0.63298947  0.79091762    -0.20400
C984        C  0.75265241  0.60375249  0.79452284    -0.08400
C985        C  0.77706938  0.60107950  0.83155091     0.30500
C986        C  0.77632817  0.62718422  0.86438598    -0.20400
C987        C  0.75148632  0.65662694  0.86087287    -0.08400
C988        C  0.72726329  0.65927968  0.82343315     0.30500
F989        F  0.70272909  0.68702075  0.81818905    -0.18900
H990        H  0.70896162  0.63552905  0.76246681     0.18800
H991        H  0.79523653  0.62421948  0.89272900     0.18800
F992        F  0.80064210  0.57268443  0.83679826    -0.18900
C993        C  0.97881352  0.86365896  0.78945829    -0.20400
C994        C  0.50185927  0.89359399  0.79437479    -0.08400
C995        C  0.52535645  0.89675312  0.83208469     0.30500
C996        C  0.52519510  0.87052911  0.86454655    -0.20400
C997        C  0.50193028  0.84048533  0.85989415    -0.08400
C998        C  0.97901549  0.83714655  0.82152308     0.30500
F999        F  0.95673339  0.80838462  0.81478513    -0.18900
H1000       H  0.96099016  0.86065980  0.76024406     0.18800
H1001       H  0.54318654  0.87394688  0.89355102     0.18800
F1002       F  0.54751725  0.92565948  0.83826752    -0.18900
C1003       C  0.02429708  0.61506624  0.87489899    -0.20400
C1004       C  0.49958142  0.64434077  0.86934872    -0.08400
C1005       C  0.47355960  0.64443100  0.83334046     0.30500
C1006       C  0.47272768  0.61603304  0.80375969    -0.20400
C1007       C  0.49793502  0.58723877  0.80904527    -0.08400
C1008       C  0.02353618  0.58684169  0.84512978     0.30500
F1009       F  0.04723140  0.55876867  0.85211738    -0.18900
H1010       H  0.04431693  0.61389500  0.90242259     0.18800
H1011       H  0.45296159  0.61685545  0.77598035     0.18800
F1012       F  0.44904624  0.67193876  0.82632831    -0.18900
C1013       C  0.89355227  0.96456047  0.69009855    -0.20400
C1014       C  0.91617513  0.99515435  0.69232017    -0.08400
C1015       C  0.89700232  0.52795771  0.68750600     0.30500
C1016       C  0.85665257  0.53020163  0.68771317    -0.20400
C1017       C  0.83399589  0.99970289  0.69100705    -0.08400
C1018       C  0.85312140  0.96673693  0.68841544     0.30500
F1019       F  0.83285064  0.93651569  0.68363920    -0.18900
H1020       H  0.90696311  0.93880384  0.68812550     0.18800
H1021       H  0.84336707  0.55589465  0.68401736     0.18800
F1022       F  0.91739200  0.55799567  0.68192858    -0.18900
C1023       C  0.60171733  0.52952787  0.69209012    -0.20400
C1024       C  0.58398065  0.99633964  0.69338750    -0.08400
C1025       C  0.60795153  0.96633496  0.68856202     0.30500
C1026       C  0.64821699  0.96951206  0.68925639    -0.20400
C1027       C  0.66612635  0.00251745  0.69370477    -0.08400
C1028       C  0.64201322  0.53278637  0.69204619     0.30500
F1029       F  0.65685784  0.56544245  0.68700067    -0.18900
H1030       H  0.58427750  0.55328373  0.69048115     0.18800
H1031       H  0.66564447  0.94585549  0.68579747     0.18800
F1032       F  0.59295686  0.93406503  0.68057377    -0.18900
C1033       C  0.77676230  0.88152993  0.09897789    -0.20400
C1034       C  0.74916260  0.85455416  0.10129372    -0.08400
C1035       C  0.72046133  0.85655649  0.13426857     0.30500
C1036       C  0.72026928  0.88423000  0.16477734    -0.20400
C1037       C  0.74841143  0.91060505  0.16315808    -0.08400
C1038       C  0.77642424  0.90930572  0.12946992     0.30500
F1039       F  0.80293648  0.93521231  0.12532313    -0.18900
H1040       H  0.79882652  0.88114636  0.07357204     0.18800
H1041       H  0.69843030  0.88465836  0.19041019     0.18800
F1042       F  0.69250718  0.83183459  0.13730427    -0.18900
C1043       C  0.77959689  0.60609719  0.14598656    -0.20400
C1044       C  0.74842747  0.60390315  0.17572895    -0.08400
C1045       C  0.71848501  0.62917544  0.17244479     0.30500
C1046       C  0.71975322  0.65558428  0.14010757    -0.20400
C1047       C  0.75072435  0.65746828  0.11015437    -0.08400
C1048       C  0.78087018  0.63251729  0.11371470     0.30500
F1049       F  0.81203923  0.63394497  0.08654872    -0.18900
H1050       H  0.80305849  0.58717247  0.14738616     0.18800
H1051       H  0.69620995  0.67447272  0.13832548     0.18800
F1052       F  0.68844399  0.62911951  0.20125412    -0.18900
C1053       C  0.72209592  0.97244591  0.46234284    -0.20400
C1054       C  0.74704989  0.99503465  0.43948409    -0.08400
C1055       C  0.77170663  0.51690766  0.46381871     0.30500
C1056       C  0.77205491  0.51567215  0.51008888    -0.20400
C1057       C  0.74742526  0.49290114  0.53305892    -0.08400
C1058       C  0.72234790  0.97122094  0.50869865     0.30500
F1059       F  0.69891751  0.94822747  0.52982804    -0.18900
H1060       H  0.70297162  0.95525611  0.44413878     0.18800
H1061       H  0.79116447  0.53296202  0.52816481     0.18800
F1062       F  0.79475116  0.54030866  0.44284499    -0.18900
C1063       C  0.52511207  0.87363721  0.10246323    -0.20400
C1064       C  0.49691320  0.84721238  0.10405004    -0.08400
C1065       C  0.96794461  0.84957829  0.13672675     0.30500
C1066       C  0.96786879  0.87737820  0.16734109    -0.20400
C1067       C  0.49657796  0.90335087  0.16624262    -0.08400
C1068       C  0.52501965  0.90135511  0.13300724     0.30500
F1069       F  0.55223827  0.92664825  0.12913553    -0.18900
H1070       H  0.54753163  0.87288726  0.07747438     0.18800
H1071       H  0.94564128  0.87826489  0.19252415     0.18800
F1072       F  0.93944520  0.82531387  0.13898774    -0.18900
C1073       C  0.52462802  0.59357187  0.13870922    -0.20400
C1074       C  0.49899703  0.59676477  0.17449345    -0.08400
C1075       C  0.97458935  0.62640364  0.17698518     0.30500
C1076       C  0.97585254  0.65237132  0.14426096    -0.20400
C1077       C  0.50146733  0.64938217  0.10823458    -0.08400
C1078       C  0.52582590  0.61943316  0.10573057     0.30500
F1079       F  0.55086199  0.61496523  0.07157197    -0.18900
H1080       H  0.54356443  0.57083402  0.13616583     0.18800
H1081       H  0.95684188  0.67501615  0.14740583     0.18800
F1082       F  0.95053010  0.63088576  0.21204480    -0.18900
C1083       C  0.85302297  0.53362799  0.28564973    -0.20400
C1084       C  0.83179901  0.00240270  0.28029770    -0.08400
C1085       C  0.85229959  0.97013029  0.28267923     0.30500
C1086       C  0.89278541  0.96948067  0.28194370    -0.20400
C1087       C  0.91403500  0.00086862  0.28067067    -0.08400
C1088       C  0.89340786  0.53287243  0.28690614     0.30500
F1089       F  0.91194924  0.56334125  0.29620792    -0.18900
H1090       H  0.83845058  0.55868962  0.29015778     0.18800
H1091       H  0.90754932  0.94425309  0.28286642     0.18800
F1092       F  0.83337147  0.93914299  0.28658375    -0.18900
C1093       C  0.64493153  0.96987119  0.28044912    -0.20400
C1094       C  0.66408969  0.00251222  0.27904346    -0.08400
C1095       C  0.64143294  0.53301045  0.28554691     0.30500
C1096       C  0.60115083  0.53112854  0.28592502    -0.20400
C1097       C  0.58190114  0.99911140  0.27990478    -0.08400
C1098       C  0.60446914  0.96807919  0.28119555     0.30500
F1099       F  0.58769041  0.93603196  0.28446343    -0.18900
H1100       H  0.66135512  0.94550532  0.28130183     0.18800
H1101       H  0.58505583  0.55526618  0.29150924     0.18800
F1102       F  0.65792287  0.56464468  0.29369021    -0.18900
C1103       C  0.52592431  0.97641701  0.51157220    -0.20400
C1104       C  0.99914798  0.99836562  0.53339246    -0.08400
C1105       C  0.97117625  0.51616022  0.50825689     0.30500
C1106       C  0.97066235  0.51286048  0.46216901    -0.20400
C1107       C  0.99768921  0.49126194  0.44023127    -0.08400
C1108       C  0.52525829  0.97295214  0.46541195     0.30500
F1109       F  0.55064722  0.95054182  0.44563417    -0.18900
H1110       H  0.54694716  0.96143273  0.53042383     0.18800
H1111       H  0.94967206  0.52797536  0.44344386     0.18800
F1112       F  0.94540002  0.53822840  0.52799670    -0.18900
loop_ 
_geom_bond_atom_site_label_1 
_geom_bond_atom_site_label_2 
_geom_bond_distance 
_geom_bond_site_symmetry_2 
_ccdc_geom_bond_type 
C1            C3   1.533       .  S
C1            C5   1.546       .  S
C1          C263   1.537       .  S
C1          C282   1.543       .  S
C2            C6   1.530       .  S
C2            C8   1.546       .  S
C2          C253   1.536       .  S
C2          C285   1.543       .  S
C3          C289   1.378       .  A
C3          C562   1.388   1_455  A
C4          C279   1.544   1_545  S
C4           C15   1.384       .  A
C4          C563   1.404   1_455  A
C5           C19   1.378       .  A
C5          C564   1.400   1_455  A
C6          C559   1.388       .  A
C6          C287   1.375       .  A
C7          C280   1.543   1_545  S
C7           C13   1.383       .  A
C7          C560   1.404       .  A
C8           C16   1.380       .  A
C8          C561   1.400       .  A
C9          C284   1.375       .  A
C9           N10   1.360       .  A
C9           H22   1.082       .  S
N10         C567   1.361       .  A
N10         C273   1.441       .  S
C11         C281   1.378       .  A
C11         N566   1.361   1_455  A
C11          H12   1.082       .  S
C13         N570   1.352       .  A
C13          H23   1.082       .  S
N14          C15   1.352   1_655  A
N14         C569   1.352       .  A
N14         C240   1.438       .  S
C15          H21   1.082       .  S
C16         N573   1.361       .  A
C16          H18   1.082       .  S
N17          C19   1.361   1_655  A
N17         C572   1.361       .  A
N17         C233   1.446       .  S
C19          H20   1.081       .  S
C24          C26   1.531   1_545  S
C24          C28   1.550       .  S
C24         C305   1.538   1_545  S
C24         C538   1.534       .  S
C25          C29   1.530   1_545  S
C25          C31   1.549       .  S
C25         C308   1.541   1_545  S
C25         C528   1.534       .  S
C26          C29   1.387       .  A
C26         C312   1.378       .  A
C27         C302   1.538       .  S
C27          C38   1.376       .  A
C27          C30   1.393       .  A
C28          C42   1.385       .  A
C28          C31   1.409       .  A
C29         C310   1.376       .  A
C30         C303   1.541       .  S
C30          C36   1.379       .  A
C31          C39   1.383       .  A
C32         C307   1.376       .  A
C32          N33   1.360       .  A
C32          H45   1.082       .  S
N33          C34   1.359       .  A
N33         C220   1.440       .  S
C34         C304   1.379       .  A
C34          H35   1.082       .  S
C36          N37   1.359       .  A
C36          H46   1.081       .  S
N37          C38   1.358       .  A
N37         C203   1.440       .  S
C38          H44   1.082       .  S
C39          N40   1.357       .  A
C39          H41   1.081       .  S
N40          C42   1.357       .  A
N40         C210   1.449       .  S
C42          H43   1.082       .  S
C47          C49   1.532   1_565  S
C47          C51   1.541   1_565  S
C47         C328   1.545       .  S
C47         C468   1.538       .  S
C48          C52   1.528   1_565  S
C48          C54   1.540   1_565  S
C48         C331   1.550       .  S
C48         C458   1.535       .  S
C49         C335   1.378       .  A
C49         C608   1.388   1_455  A
C50         C325   1.546       .  S
C50          C61   1.383       .  A
C50         C609   1.417   1_455  A
C51          C65   1.377       .  A
C51         C610   1.393   1_455  A
C52         C605   1.388       .  A
C52         C333   1.375       .  A
C53         C326   1.550       .  S
C53          C59   1.385       .  A
C53         C606   1.417       .  A
C54          C62   1.379       .  A
C54         C607   1.393       .  A
C55         C330   1.375       .  A
C55          N56   1.358       .  A
C55          H68   1.082       .  S
N56         C613   1.361       .  A
N56         C270   1.440       .  S
C57         C327   1.379       .  A
C57         N612   1.361   1_455  A
C57          H58   1.082       .  S
C59         N616   1.352       .  A
C59          H69   1.082       .  S
N60          C61   1.351       .  A
N60         C615   1.352   1_455  A
N60         C160   1.437       .  S
C61          H67   1.082       .  S
C62         N619   1.358       .  A
C62          H64   1.082       .  S
N63          C65   1.358   1_655  A
N63         C618   1.358       .  A
N63         C173   1.438       .  S
C65          H66   1.082       .  S
C70          C72   1.532       .  S
C70          C74   1.539       .  S
C70         C193   1.538       .  S
C70         C351   1.550       .  S
C71          C75   1.530       .  S
C71          C77   1.537       .  S
C71         C183   1.536       .  S
C71         C354   1.550       .  S
C72          C75   1.387       .  A
C72         C358   1.378       .  A
C73         C348   1.550       .  S
C73          C84   1.385       .  A
C73          C76   1.417       .  A
C74          C88   1.376       .  A
C74          C77   1.392       .  A
C75         C356   1.377       .  A
C76         C349   1.550       .  S
C76          C82   1.387       .  A
C77          C85   1.376       .  A
C78         C353   1.376       .  A
C78          N79   1.359       .  A
C78          H91   1.082       .  S
N79          C80   1.359       .  A
N79         C223   1.438       .  S
C80         C350   1.378       .  A
C80          H81   1.083       .  S
C82          N83   1.353       .  A
C82          H92   1.081       .  S
N83          C84   1.352       .  A
N83         C150   1.440       .  S
C84          H90   1.082       .  S
C85          N86   1.358       .  A
C85          H87   1.081       .  S
N86          C88   1.359       .  A
N86         C140   1.438       .  S
C88          H89   1.082       .  S
Zn93         O98   2.032       .  S
Zn93        O102   2.022       .  S
Zn93        O109   1.982       .  S
Zn93        O653   1.956   1_554  S
Zn94         O99   1.981       .  S
Zn94        O101   2.012   1_556  S
Zn94        O105   2.006       .  S
Zn94         O97   1.949       .  S
Zn95        O100   2.022   1_556  S
Zn95        O103   2.001       .  S
Zn95        O106   2.021       .  S
Zn95         O97   1.954       .  S
Zn96        O104   2.012       .  S
Zn96        O107   2.018       .  S
Zn96        O108   1.986       .  S
Zn96        O653   1.956       .  S
O97        Zn649   1.956   1_456  S
O97        Zn652   1.956   1_455  S
O98         C666   1.274       .  A
O99         C111   1.269       .  A
O100        C112   1.274       .  A
O101        C110   1.273   1_455  A
O102        C668   1.275       .  A
O103        C111   1.272       .  A
O104        C669   1.272       .  A
O105        C114   1.272       .  A
O106        C113   1.274       .  A
O107        C670   1.273       .  A
O108        C115   1.270       .  A
O109        C115   1.269   1_554  A
C110        O654   1.274       .  A
C110        C230   1.488       .  S
C111        C136   1.442       .  S
C112        O658   1.275   1_455  A
C112        C243   1.489       .  S
C113        O660   1.272   1_455  A
C113        C170   1.487   1_455  S
C114        O663   1.273   1_455  A
C114        C163   1.485       .  S
C115        C133   1.437       .  S
Zn116       O121   1.978       .  S
Zn116       O125   2.005   1_556  S
Zn116       O132   1.999       .  S
Zn116       O120   1.952       .  S
Zn117       O122   2.020   1_556  S
Zn117       O124   1.987       .  S
Zn117       O128   2.021       .  S
Zn117       O120   1.950       .  S
Zn118       O123   2.024       .  S
Zn118       O126   2.028       .  S
Zn118       O129   1.987       .  S
Zn118       O120   1.953   1_554  S
Zn119       O127   1.996       .  S
Zn119       O130   2.027       .  S
Zn119       O131   2.019       .  S
Zn119       O120   1.953       .  S
O121        C133   1.269       .  A
O122        C134   1.274       .  A
O123        C135   1.274       .  A
O124        C133   1.270       .  A
O125        C135   1.271       .  A
O126        C134   1.275       .  A
O127        C136   1.271       .  A
O128        C137   1.274       .  A
O129        C136   1.270   1_554  A
O130        C137   1.274       .  A
O131        C138   1.273       .  A
O132        C138   1.271       .  A
C134        C213   1.487       .  S
C135        C200   1.486       .  S
C137        C153   1.490       .  S
C138        C143   1.483       .  S
C139        C140   1.403       .  A
C139        C144   1.396       .  A
C139        H146   1.083       .  S
C140        C141   1.406       .  A
C141        C142   1.397       .  A
C141        F148   1.357       .  S
C142        C143   1.408       .  A
C142        H147   1.083       .  S
C143        C144   1.408       .  A
C144        F145   1.357       .  S
C149        C150   1.403       .  A
C149        C154   1.399       .  A
C149        H156   1.083       .  S
C150        C151   1.405       .  A
C151        C152   1.401       .  A
C151        F158   1.357       .  S
C152        C153   1.409       .  A
C152        H157   1.083       .  S
C153        C154   1.411       .  A
C154        F155   1.357       .  S
C159        C164   1.398       .  A
C159        C716   1.402       .  A
C159        H166   1.083       .  S
C160        C161   1.405       .  A
C160        C715   1.402   1_455  A
C161        C162   1.398       .  A
C161        F168   1.357       .  S
C162        C163   1.408       .  A
C162        H167   1.083       .  S
C163        C720   1.410   1_455  A
C164        C719   1.410       .  A
C164        F165   1.357       .  S
C169        C174   1.398       .  A
C169        C726   1.407       .  A
C169        H176   1.083       .  S
C170        C171   1.412       .  A
C170        C725   1.407   1_655  A
C171        C172   1.399       .  A
C171        F178   1.357       .  S
C172        C173   1.403       .  A
C172        H177   1.083       .  S
C173        C730   1.404   1_655  A
C174        C729   1.404       .  A
C174        F175   1.357       .  S
C179        C180   1.408       .  A
C179        C184   1.403       .  A
C179        H186   1.081       .  S
C180        C326   1.536       .  S
C180        C459   1.411       .  A
C181        C182   1.400       .  A
C181        C458   1.411   1_545  A
C181        F188   1.357       .  S
C182        C461   1.406   1_545  A
C182        H187   1.081       .  S
C183        C184   1.413       .  A
C183        C460   1.406       .  A
C184        F185   1.357       .  S
C189        C194   1.402       .  A
C189        C468   1.408   1_545  A
C189        H196   1.083       .  S
C190        C325   1.538       .  S
C190        C191   1.412       .  A
C190        C467   1.408       .  A
C191        C192   1.401       .  A
C191        F198   1.356       .  S
C192        C193   1.409       .  A
C192        H197   1.083       .  S
C193        C472   1.413       .  A
C194        C471   1.412       .  A
C194        F195   1.355       .  S
C199        C200   1.409       .  A
C199        C204   1.399       .  A
C199        H206   1.083       .  S
C200        C201   1.409       .  A
C201        C202   1.396       .  A
C201        F208   1.357       .  S
C202        C203   1.404       .  A
C202        H207   1.082       .  S
C203        C204   1.406       .  A
C204        F205   1.357       .  S
C209        C210   1.407       .  A
C209        C214   1.400       .  A
C209        H216   1.081       .  S
C210        C211   1.411       .  A
C211        C212   1.401       .  A
C211        F218   1.357       .  S
C212        C213   1.406       .  A
C212        H217   1.083       .  S
C213        C214   1.408       .  A
C214        F215   1.358       .  S
C219        C220   1.405       .  A
C219        C224   1.401       .  A
C219        H226   1.083       .  S
C220        C499   1.407       .  A
C221        C222   1.397       .  A
C221        C498   1.407   1_545  A
C221        F228   1.357       .  S
C222        C223   1.403   1_545  A
C222        H227   1.083       .  S
C223        C502   1.406       .  A
C224        C501   1.406       .  A
C224        F225   1.357       .  S
C229        C230   1.407   1_455  A
C229        C234   1.398       .  A
C229        H236   1.083       .  S
C230        C787   1.410       .  A
C231        C232   1.402       .  A
C231        C786   1.410       .  A
C231        F238   1.357       .  S
C232        C789   1.407       .  A
C232        H237   1.083       .  S
C233        C234   1.408   1_655  A
C233        C788   1.407       .  A
C234        F235   1.356       .  S
C239        C240   1.403   1_455  A
C239        C244   1.400       .  A
C239        H246   1.083       .  S
C240        C797   1.404       .  A
C241        C242   1.398       .  A
C241        C796   1.404       .  A
C241        F248   1.357       .  S
C242        C799   1.408       .  A
C242        H247   1.083       .  S
C243        C244   1.412       .  A
C243        C798   1.408   1_455  A
C244        F245   1.357       .  S
C249        C254   1.399       .  A
C249        C528   1.405       .  A
C249        H256   1.082       .  S
C250        C303   1.534       .  S
C250        C251   1.413       .  A
C250        C527   1.405       .  A
C251        C252   1.403       .  A
C251        F258   1.357       .  S
C252        C253   1.406       .  A
C252        H257   1.083       .  S
C253        C532   1.415       .  A
C254        C531   1.414       .  A
C254        F255   1.357       .  S
C259        C260   1.411       .  A
C259        C264   1.404       .  A
C259        H266   1.082       .  S
C260        C302   1.535       .  S
C260        C539   1.409       .  A
C261        C262   1.398       .  A
C261        C538   1.409       .  A
C261        F268   1.356       .  S
C262        C541   1.410   1_545  A
C262        H267   1.082       .  S
C263        C264   1.409       .  A
C263        C540   1.410       .  A
C264        F265   1.356       .  S
C269        C274   1.400       .  A
C269        C826   1.405   1_455  A
C269        H276   1.083       .  S
C270        C825   1.405       .  A
C270        C549   1.407       .  A
C271        C272   1.397       .  A
C271        C548   1.406   1_545  A
C271        F278   1.357       .  S
C272        C273   1.405   1_545  A
C272        H277   1.082       .  S
C273       C1108   1.407       .  A
C274       C1107   1.408   1_455  A
C274        F275   1.357       .  S
C279        C281   1.532       .  S
C279        C283   1.545       .  S
C279        C541   1.537       .  S
C280        C284   1.530       .  S
C280        C286   1.546       .  S
C280        C531   1.536   1_565  S
C281        C840   1.388   1_455  A
C282        C293   1.384       .  A
C282        C841   1.404   1_455  A
C283        C297   1.378       .  A
C283        C842   1.399   1_455  A
C284        C837   1.388       .  A
C285        C838   1.404       .  A
C285        C291   1.384       .  A
C286        C839   1.399       .  A
C286        C294   1.380       .  A
C287        N288   1.360       .  A
C287        H300   1.082       .  S
N288        C845   1.361       .  A
N288        C551   1.441       .  S
C289        N844   1.361   1_455  A
C289        H290   1.082       .  S
C291        N848   1.352       .  A
C291        H301   1.082       .  S
N292        C847   1.352       .  A
N292        C293   1.351   1_655  A
N292        C518   1.438       .  S
C293        H299   1.082       .  S
C294        N851   1.361       .  A
C294        H296   1.082       .  S
N295        C850   1.361       .  A
N295        C297   1.361   1_655  A
N295        C511   1.445       .  S
C297        H298   1.081       .  S
C302        C304   1.532       .  S
C302        C306   1.550       .  S
C303        C307   1.530       .  S
C303        C309   1.549       .  S
C304        C307   1.387       .  A
C305        C316   1.376       .  A
C305        C308   1.393       .  A
C306        C320   1.385       .  A
C306        C309   1.410       .  A
C308        C314   1.379       .  A
C309        C317   1.384       .  A
C310        N311   1.359       .  A
C310        H323   1.082       .  S
N311        C312   1.359       .  A
N311        C498   1.439       .  S
C312        H313   1.082       .  S
C314        N315   1.359       .  A
C314        H324   1.081       .  S
N315        C316   1.358       .  A
N315        C481   1.440       .  S
C316        H322   1.083       .  S
C317        N318   1.357       .  A
C317        H319   1.081       .  S
N318        C320   1.357       .  A
N318        C488   1.449       .  S
C320        H321   1.082       .  S
C325        C327   1.533       .  S
C325        C329   1.541       .  S
C326        C330   1.528       .  S
C326        C332   1.539       .  S
C327        C886   1.388   1_455  A
C328        C339   1.383       .  A
C328        C887   1.417   1_455  A
C329        C343   1.378       .  A
C329        C888   1.393   1_455  A
C330        C883   1.388       .  A
C331        C884   1.417       .  A
C331        C337   1.385       .  A
C332        C885   1.393       .  A
C332        C340   1.379       .  A
C333        N334   1.358       .  A
C333        H346   1.082   1_545  S
N334        C891   1.361       .  A
N334        C548   1.440   1_545  S
C335        N890   1.361   1_455  A
C335        H336   1.082   1_545  S
C337        N894   1.352       .  A
C337        H347   1.082       .  S
N338        C893   1.352   1_455  A
N338        C339   1.351       .  A
N338        C438   1.437       .  S
C339        H345   1.082       .  S
C340        N897   1.358       .  A
C340        H342   1.082       .  S
N341        C896   1.358       .  A
N341        C343   1.358   1_655  A
N341        C451   1.438       .  S
C343        H344   1.082       .  S
C348        C350   1.531   1_545  S
C348        C352   1.539   1_545  S
C348        C471   1.538       .  S
C349        C353   1.530   1_545  S
C349        C355   1.537   1_545  S
C349        C461   1.536   1_545  S
C350        C353   1.388       .  A
C351        C362   1.385       .  A
C351        C354   1.417       .  A
C352        C366   1.376       .  A
C352        C355   1.393       .  A
C354        C360   1.387       .  A
C355        C363   1.375       .  A
C356        N357   1.360       .  A
C356        H369   1.082       .  S
N357        C358   1.359       .  A
N357        C501   1.439       .  S
C358        H359   1.083       .  S
C360        N361   1.353       .  A
C360        H370   1.082       .  S
N361        C362   1.351       .  A
N361        C428   1.440       .  S
C362        H368   1.082       .  S
C363        N364   1.358       .  A
C363        H365   1.081       .  S
N364        C366   1.359       .  A
N364        C418   1.438       .  S
C366        H367   1.082       .  S
Zn371       O376   2.032       .  S
Zn371       O380   2.022       .  S
Zn371       O387   1.983       .  S
Zn371       O931   1.956   1_554  S
Zn372       O377   1.980       .  S
Zn372       O379   2.011   1_556  S
Zn372       O383   2.005       .  S
Zn372       O375   1.949       .  S
Zn373       O378   2.023   1_556  S
Zn373       O381   2.001       .  S
Zn373       O384   2.021       .  S
Zn373       O375   1.954       .  S
Zn374       O382   2.014       .  S
Zn374       O385   2.018       .  S
Zn374       O386   1.986       .  S
Zn374       O931   1.956       .  S
O375       Zn927   1.956   1_456  S
O375       Zn930   1.956   1_455  S
O376        C944   1.274       .  A
O377        C389   1.269       .  A
O378        C390   1.274       .  A
O379        C388   1.273   1_455  A
O380        C946   1.274       .  A
O381        C389   1.272       .  A
O382        C947   1.272       .  A
O383        C392   1.271       .  A
O384        C391   1.274       .  A
O385        C948   1.273       .  A
O386        C393   1.270       .  A
O387        C393   1.269   1_554  A
C388        O932   1.274       .  A
C388        C508   1.488       .  S
C389        C414   1.442       .  S
C390        O936   1.274   1_455  A
C390        C521   1.489       .  S
C391        O938   1.272   1_455  A
C391        C448   1.487   1_455  S
C392        O941   1.273   1_455  A
C392        C441   1.485       .  S
C393        C411   1.438       .  S
Zn394       O399   1.979       .  S
Zn394       O403   2.005   1_556  S
Zn394       O410   1.999       .  S
Zn394       O398   1.952       .  S
Zn395       O400   2.021   1_556  S
Zn395       O402   1.988       .  S
Zn395       O406   2.021       .  S
Zn395       O398   1.950       .  S
Zn396       O401   2.022       .  S
Zn396       O404   2.028       .  S
Zn396       O407   1.985       .  S
Zn396       O398   1.953   1_554  S
Zn397       O405   1.994       .  S
Zn397       O408   2.025       .  S
Zn397       O409   2.018       .  S
Zn397       O398   1.953       .  S
O399        C411   1.269       .  A
O400        C412   1.274       .  A
O401        C413   1.274       .  A
O402        C411   1.270       .  A
O403        C413   1.271       .  A
O404        C412   1.274       .  A
O405        C414   1.271       .  A
O406        C415   1.274       .  A
O407        C414   1.270   1_554  A
O408        C415   1.274       .  A
O409        C416   1.273       .  A
O410        C416   1.271       .  A
C412        C491   1.487       .  S
C413        C478   1.485       .  S
C415        C431   1.490       .  S
C416        C421   1.483       .  S
C417        C418   1.403       .  A
C417        C422   1.396       .  A
C417        H424   1.083       .  S
C418        C419   1.406       .  A
C419        C420   1.397       .  A
C419        F426   1.357       .  S
C420        C421   1.408       .  A
C420        H425   1.083       .  S
C421        C422   1.409       .  A
C422        F423   1.357       .  S
C427        C428   1.403       .  A
C427        C432   1.399       .  A
C427        H434   1.083       .  S
C428        C429   1.405       .  A
C429        C430   1.401       .  A
C429        F436   1.357       .  S
C430        C431   1.409       .  A
C430        H435   1.083       .  S
C431        C432   1.411       .  A
C432        F433   1.357       .  S
C437        C994   1.402       .  A
C437        C442   1.397       .  A
C437        H444   1.083       .  S
C438        C993   1.402   1_455  A
C438        C439   1.405       .  A
C439        C440   1.398       .  A
C439        F446   1.357       .  S
C440        C441   1.409       .  A
C440        H445   1.083       .  S
C441        C998   1.410   1_455  A
C442        C997   1.410       .  A
C442        F443   1.357       .  S
C447       C1004   1.408       .  A
C447        C452   1.398       .  A
C447        H454   1.083       .  S
C448       C1003   1.408   1_655  A
C448        C449   1.412       .  A
C449        C450   1.399       .  A
C449        F456   1.357       .  S
C450        C451   1.403       .  A
C450        H455   1.083       .  S
C451       C1008   1.404   1_655  A
C452       C1007   1.404       .  A
C452        F453   1.357       .  S
C457        C458   1.408       .  A
C457        C462   1.403       .  A
C457        H464   1.081       .  S
C459        C460   1.400       .  A
C459        F466   1.357       .  S
C460        H465   1.081       .  S
C461        C462   1.413       .  A
C462        F463   1.357       .  S
C467        C472   1.402       .  A
C467        H474   1.083       .  S
C468        C469   1.412       .  A
C469        C470   1.401       .  A
C469        F476   1.356       .  S
C470        C471   1.409   1_565  A
C470        H475   1.083       .  S
C472        F473   1.355       .  S
C477        C478   1.408       .  A
C477        C482   1.399       .  A
C477        H484   1.083       .  S
C478        C479   1.409       .  A
C479        C480   1.396       .  A
C479        F486   1.357       .  S
C480        C481   1.404       .  A
C480        H485   1.082       .  S
C481        C482   1.406       .  A
C482        F483   1.357       .  S
C487        C488   1.408       .  A
C487        C492   1.400       .  A
C487        H494   1.081       .  S
C488        C489   1.411       .  A
C489        C490   1.401       .  A
C489        F496   1.356       .  S
C490        C491   1.406       .  A
C490        H495   1.083       .  S
C491        C492   1.408       .  A
C492        F493   1.358       .  S
C497        C498   1.405       .  A
C497        C502   1.400       .  A
C497        H504   1.083       .  S
C499        C500   1.398       .  A
C499        F506   1.357       .  S
C500        C501   1.404       .  A
C500        H505   1.083       .  S
C502        F503   1.357       .  S
C507        C508   1.407   1_455  A
C507        C512   1.398       .  A
C507        H514   1.083       .  S
C508       C1065   1.410       .  A
C509       C1064   1.410       .  A
C509        C510   1.402       .  A
C509        F516   1.357       .  S
C510       C1067   1.407       .  A
C510        H515   1.083       .  S
C511       C1066   1.407       .  A
C511        C512   1.408   1_655  A
C512        F513   1.356       .  S
C517        C518   1.403   1_455  A
C517        C522   1.400       .  A
C517        H524   1.083       .  S
C518       C1075   1.404       .  A
C519       C1074   1.404       .  A
C519        C520   1.398       .  A
C519        F526   1.357       .  S
C520       C1077   1.408       .  A
C520        H525   1.083       .  S
C521       C1076   1.408   1_455  A
C521        C522   1.412       .  A
C522        F523   1.357       .  S
C527        C532   1.400       .  A
C527        H534   1.082       .  S
C528        C529   1.413   1_545  A
C529        C530   1.403       .  A
C529        F536   1.357       .  S
C530        C531   1.406   1_565  A
C530        H535   1.082       .  S
C532        F533   1.356       .  S
C537        C538   1.411   1_565  A
C537        C542   1.404       .  A
C537        H544   1.082       .  S
C539        C540   1.398       .  A
C539        F546   1.356       .  S
C540        H545   1.082       .  S
C541        C542   1.409       .  A
C542        F543   1.356       .  S
C547       C1104   1.405   1_455  A
C547        C552   1.400       .  A
C547        H554   1.083       .  S
C548       C1103   1.405       .  A
C549        C550   1.397       .  A
C549        F556   1.357       .  S
C550        C551   1.405       .  A
C550        H555   1.082       .  S
C551        C830   1.408       .  A
C552        C829   1.407   1_455  A
C552        F553   1.357       .  S
C557        C559   1.533       .  S
C557        C561   1.546       .  S
C557        C838   1.543       .  S
C557        C819   1.537       .  S
C558        C562   1.530       .  S
C558        C564   1.546       .  S
C558        C841   1.543       .  S
C558        C809   1.536       .  S
C559        C845   1.378       .  A
C560        C835   1.544   1_545  S
C560        C571   1.384       .  A
C561        C575   1.378       .  A
C562        C843   1.375       .  A
C563        C836   1.543   1_545  S
C563        C569   1.383       .  A
C564        C572   1.380       .  A
C565        C840   1.375       .  A
C565        N566   1.360       .  A
C565        H578   1.082       .  S
N566        C829   1.441       .  S
C567        C837   1.378       .  A
C567        H568   1.082       .  S
C569        H579   1.082       .  S
N570        C571   1.352       .  A
N570        C796   1.438       .  S
C571        H577   1.082       .  S
C572        H574   1.082       .  S
N573        C575   1.361       .  A
N573        C789   1.446       .  S
C575        H576   1.081       .  S
C580        C582   1.531   1_545  S
C580        C584   1.550       .  S
C580        C861   1.538   1_545  S
C580       C1094   1.534       .  S
C581        C585   1.530   1_545  S
C581        C587   1.549       .  S
C581        C864   1.541   1_545  S
C581       C1084   1.534       .  S
C582        C868   1.378       .  A
C582        C585   1.387       .  A
C583        C858   1.538       .  S
C583        C594   1.376       .  A
C583        C586   1.393       .  A
C584        C598   1.385       .  A
C584        C587   1.409       .  A
C585        C866   1.376       .  A
C586        C859   1.541       .  S
C586        C592   1.379       .  A
C587        C595   1.383       .  A
C588        C863   1.376       .  A
C588        N589   1.360       .  A
C588        H601   1.082       .  S
N589        C590   1.359       .  A
N589        C776   1.440       .  S
C590        C860   1.379       .  A
C590        H591   1.082       .  S
C592        N593   1.359       .  A
C592        H602   1.081       .  S
N593        C594   1.358       .  A
N593        C759   1.440       .  S
C594        H600   1.082       .  S
C595        N596   1.357       .  A
C595        H597   1.081       .  S
N596        C598   1.357       .  A
N596        C766   1.449       .  S
C598        H599   1.082       .  S
C603        C605   1.532   1_565  S
C603        C607   1.541   1_565  S
C603        C884   1.545       .  S
C603       C1024   1.538       .  S
C604        C608   1.528   1_565  S
C604        C610   1.540   1_565  S
C604        C887   1.550       .  S
C604       C1014   1.535       .  S
C605        C891   1.378       .  A
C606        C881   1.546       .  S
C606        C617   1.383       .  A
C607        C621   1.377       .  A
C608        C889   1.375       .  A
C609        C882   1.550       .  S
C609        C615   1.385       .  A
C610        C618   1.379       .  A
C611        C886   1.375       .  A
C611        N612   1.358       .  A
C611        H624   1.082       .  S
N612        C826   1.440       .  S
C613        C883   1.379       .  A
C613        H614   1.082       .  S
C615        H625   1.082       .  S
N616        C617   1.351       .  A
N616        C716   1.437       .  S
C617        H623   1.082       .  S
C618        H620   1.082       .  S
N619        C621   1.358       .  A
N619        C729   1.438       .  S
C621        H622   1.082       .  S
C626        C628   1.532       .  S
C626        C630   1.539       .  S
C626        C907   1.550       .  S
C626        C749   1.538       .  S
C627        C631   1.530       .  S
C627        C633   1.537       .  S
C627        C910   1.550       .  S
C627        C739   1.536       .  S
C628        C914   1.378       .  A
C628        C631   1.387       .  A
C629        C904   1.550       .  S
C629        C640   1.385       .  A
C629        C632   1.417       .  A
C630        C644   1.376       .  A
C630        C633   1.392       .  A
C631        C912   1.377       .  A
C632        C905   1.550       .  S
C632        C638   1.387       .  A
C633        C641   1.376       .  A
C634        C909   1.376       .  A
C634        N635   1.359       .  A
C634        H647   1.082       .  S
N635        C636   1.359       .  A
N635        C779   1.438       .  S
C636        C906   1.378       .  A
C636        H637   1.083       .  S
C638        N639   1.353       .  A
C638        H648   1.081       .  S
N639        C640   1.352       .  A
N639        C706   1.440       .  S
C640        H646   1.082       .  S
C641        N642   1.358       .  A
C641        H643   1.081       .  S
N642        C644   1.359       .  A
N642        C696   1.438       .  S
C644        H645   1.082       .  S
Zn649       O654   2.032       .  S
Zn649       O658   2.022       .  S
Zn649       O665   1.982       .  S
Zn650       O655   1.981       .  S
Zn650       O657   2.012   1_556  S
Zn650       O661   2.006       .  S
Zn650       O653   1.949       .  S
Zn651       O656   2.022   1_556  S
Zn651       O659   2.001       .  S
Zn651       O662   2.021       .  S
Zn651       O653   1.954       .  S
Zn652       O660   2.012       .  S
Zn652       O663   2.018       .  S
Zn652       O664   1.986       .  S
O655        C667   1.269       .  A
O656        C668   1.274       .  A
O657        C666   1.273       .  A
O659        C667   1.272       .  A
O661        C670   1.272       .  A
O662        C669   1.274       .  A
O664        C671   1.270       .  A
O665        C671   1.269   1_554  A
C666        C786   1.488       .  S
C667        C692   1.442       .  S
C668        C799   1.489       .  S
C669        C726   1.487       .  S
C670        C719   1.485       .  S
C671        C689   1.437       .  S
Zn672       O677   1.978       .  S
Zn672       O681   2.005   1_556  S
Zn672       O688   1.999       .  S
Zn672       O676   1.952       .  S
Zn673       O678   2.020   1_556  S
Zn673       O680   1.987       .  S
Zn673       O684   2.021       .  S
Zn673       O676   1.950       .  S
Zn674       O679   2.024       .  S
Zn674       O682   2.028       .  S
Zn674       O685   1.987       .  S
Zn674       O676   1.953   1_554  S
Zn675       O683   1.996       .  S
Zn675       O686   2.027       .  S
Zn675       O687   2.019       .  S
Zn675       O676   1.953       .  S
O677        C689   1.269       .  A
O678        C690   1.274       .  A
O679        C691   1.274       .  A
O680        C689   1.270       .  A
O681        C691   1.271       .  A
O682        C690   1.275       .  A
O683        C692   1.271       .  A
O684        C693   1.274       .  A
O685        C692   1.270   1_554  A
O686        C693   1.274       .  A
O687        C694   1.273       .  A
O688        C694   1.271       .  A
C690        C769   1.487       .  S
C691        C756   1.486       .  S
C693        C709   1.490       .  S
C694        C699   1.483       .  S
C695        C696   1.403       .  A
C695        C700   1.396       .  A
C695        H702   1.083       .  S
C696        C697   1.406       .  A
C697        C698   1.397       .  A
C697        F704   1.357       .  S
C698        C699   1.408       .  A
C698        H703   1.083       .  S
C699        C700   1.408       .  A
C700        F701   1.357       .  S
C705        C706   1.403       .  A
C705        C710   1.399       .  A
C705        H712   1.083       .  S
C706        C707   1.405       .  A
C707        C708   1.401       .  A
C707        F714   1.357       .  S
C708        C709   1.409       .  A
C708        H713   1.083       .  S
C709        C710   1.411       .  A
C710        F711   1.357       .  S
C715        C720   1.398       .  A
C715        H722   1.083       .  S
C716        C717   1.405       .  A
C717        C718   1.398       .  A
C717        F724   1.357       .  S
C718        C719   1.408       .  A
C718        H723   1.083       .  S
C720        F721   1.357       .  S
C725        C730   1.398       .  A
C725        H732   1.083       .  S
C726        C727   1.412       .  A
C727        C728   1.399       .  A
C727        F734   1.357       .  S
C728        C729   1.403       .  A
C728        H733   1.083       .  S
C730        F731   1.357       .  S
C735        C736   1.408       .  A
C735        C740   1.403       .  A
C735        H742   1.081       .  S
C736        C882   1.536       .  S
C736       C1015   1.411       .  A
C737       C1014   1.411   1_545  A
C737        C738   1.400       .  A
C737        F744   1.357       .  S
C738       C1017   1.406   1_545  A
C738        H743   1.081       .  S
C739       C1016   1.406       .  A
C739        C740   1.413       .  A
C740        F741   1.357       .  S
C745       C1024   1.408   1_545  A
C745        C750   1.402       .  A
C745        H752   1.083       .  S
C746        C881   1.538       .  S
C746       C1023   1.408       .  A
C746        C747   1.412       .  A
C747        C748   1.401       .  A
C747        F754   1.356       .  S
C748        C749   1.409       .  A
C748        H753   1.083       .  S
C749       C1028   1.413       .  A
C750       C1027   1.412       .  A
C750        F751   1.355       .  S
C755        C756   1.409       .  A
C755        C760   1.399       .  A
C755        H762   1.083       .  S
C756        C757   1.409       .  A
C757        C758   1.396       .  A
C757        F764   1.357       .  S
C758        C759   1.404       .  A
C758        H763   1.082       .  S
C759        C760   1.406       .  A
C760        F761   1.357       .  S
C765        C766   1.407       .  A
C765        C770   1.400       .  A
C765        H772   1.081       .  S
C766        C767   1.411       .  A
C767        C768   1.401       .  A
C767        F774   1.357       .  S
C768        C769   1.406       .  A
C768        H773   1.083       .  S
C769        C770   1.408       .  A
C770        F771   1.358       .  S
C775        C776   1.405       .  A
C775        C780   1.401       .  A
C775        H782   1.083       .  S
C776       C1055   1.407       .  A
C777       C1054   1.407   1_545  A
C777        C778   1.397       .  A
C777        F784   1.357       .  S
C778        C779   1.403   1_545  A
C778        H783   1.083       .  S
C779       C1058   1.406       .  A
C780       C1057   1.406       .  A
C780        F781   1.357       .  S
C785        C786   1.407       .  A
C785        C790   1.398       .  A
C785        H792   1.083       .  S
C787        C788   1.402       .  A
C787        F794   1.357       .  S
C788        H793   1.083       .  S
C789        C790   1.408       .  A
C790        F791   1.356       .  S
C795        C796   1.403       .  A
C795        C800   1.400       .  A
C795        H802   1.083       .  S
C797        C798   1.398       .  A
C797        F804   1.357       .  S
C798        H803   1.083       .  S
C799        C800   1.412       .  A
C800        F801   1.357       .  S
C805       C1084   1.405       .  A
C805        C810   1.399       .  A
C805        H812   1.082       .  S
C806        C859   1.534       .  S
C806       C1083   1.405       .  A
C806        C807   1.413       .  A
C807        C808   1.403       .  A
C807        F814   1.357       .  S
C808        C809   1.406       .  A
C808        H813   1.083       .  S
C809       C1088   1.415       .  A
C810       C1087   1.414       .  A
C810        F811   1.357       .  S
C815        C816   1.411       .  A
C815        C820   1.404       .  A
C815        H822   1.082       .  S
C816        C858   1.535       .  S
C816       C1095   1.409       .  A
C817       C1094   1.409       .  A
C817        C818   1.398       .  A
C817        F824   1.356       .  S
C818       C1097   1.410   1_545  A
C818        H823   1.082       .  S
C819       C1096   1.410       .  A
C819        C820   1.409       .  A
C820        F821   1.356       .  S
C825        C830   1.400       .  A
C825        H832   1.083       .  S
C826       C1105   1.407       .  A
C827       C1104   1.406   1_545  A
C827        C828   1.397       .  A
C827        F834   1.357       .  S
C828        C829   1.405   1_545  A
C828        H833   1.082       .  S
C830        F831   1.357       .  S
C835        C837   1.532       .  S
C835        C839   1.545       .  S
C835       C1097   1.537       .  S
C836        C840   1.530       .  S
C836        C842   1.546       .  S
C836       C1087   1.536   1_565  S
C838        C849   1.384       .  A
C839        C853   1.378       .  A
C841        C847   1.384       .  A
C842        C850   1.380       .  A
C843        N844   1.360       .  A
C843        H856   1.082       .  S
N844       C1107   1.441       .  S
C845        H846   1.082       .  S
C847        H857   1.082       .  S
N848        C849   1.351       .  A
N848       C1074   1.438       .  S
C849        H855   1.082       .  S
C850        H852   1.082       .  S
N851        C853   1.361       .  A
N851       C1067   1.445       .  S
C853        H854   1.081       .  S
C858        C860   1.532       .  S
C858        C862   1.550       .  S
C859        C863   1.530       .  S
C859        C865   1.549       .  S
C860        C863   1.387       .  A
C861        C872   1.376       .  A
C861        C864   1.393       .  A
C862        C876   1.385       .  A
C862        C865   1.410       .  A
C864        C870   1.379       .  A
C865        C873   1.384       .  A
C866        N867   1.359       .  A
C866        H879   1.082       .  S
N867        C868   1.359       .  A
N867       C1054   1.439       .  S
C868        H869   1.082       .  S
C870        N871   1.359       .  A
C870        H880   1.081       .  S
N871        C872   1.358       .  A
N871       C1037   1.440       .  S
C872        H878   1.083       .  S
C873        N874   1.357       .  A
C873        H875   1.081       .  S
N874        C876   1.357       .  A
N874       C1044   1.449       .  S
C876        H877   1.082       .  S
C881        C883   1.533       .  S
C881        C885   1.541       .  S
C882        C886   1.528       .  S
C882        C888   1.539       .  S
C884        C895   1.383       .  A
C885        C899   1.378       .  A
C887        C893   1.385       .  A
C888        C896   1.379       .  A
C889        N890   1.358       .  A
C889        H902   1.082   1_545  S
N890       C1104   1.440   1_545  S
C891        H892   1.082   1_545  S
C893        H903   1.082       .  S
N894        C895   1.351       .  A
N894        C994   1.437       .  S
C895        H901   1.082       .  S
C896        H898   1.082       .  S
N897        C899   1.358       .  A
N897       C1007   1.438       .  S
C899        H900   1.082       .  S
C904        C906   1.531   1_545  S
C904        C908   1.539   1_545  S
C904       C1027   1.538       .  S
C905        C909   1.530   1_545  S
C905        C911   1.537   1_545  S
C905       C1017   1.536   1_545  S
C906        C909   1.388       .  A
C907        C918   1.385       .  A
C907        C910   1.417       .  A
C908        C922   1.376       .  A
C908        C911   1.393       .  A
C910        C916   1.387       .  A
C911        C919   1.375       .  A
C912        N913   1.360       .  A
C912        H925   1.082       .  S
N913        C914   1.359       .  A
N913       C1057   1.439       .  S
C914        H915   1.083       .  S
C916        N917   1.353       .  A
C916        H926   1.082       .  S
N917        C918   1.351       .  A
N917        C984   1.440       .  S
C918        H924   1.082       .  S
C919        N920   1.358       .  A
C919        H921   1.081       .  S
N920        C922   1.359       .  A
N920        C974   1.438       .  S
C922        H923   1.082       .  S
Zn927       O932   2.032       .  S
Zn927       O936   2.022       .  S
Zn927       O943   1.983       .  S
Zn928       O933   1.980       .  S
Zn928       O935   2.011   1_556  S
Zn928       O939   2.005       .  S
Zn928       O931   1.949       .  S
Zn929       O934   2.023   1_556  S
Zn929       O937   2.001       .  S
Zn929       O940   2.021       .  S
Zn929       O931   1.954       .  S
Zn930       O938   2.014       .  S
Zn930       O941   2.018       .  S
Zn930       O942   1.986       .  S
O933        C945   1.269       .  A
O934        C946   1.274       .  A
O935        C944   1.273       .  A
O937        C945   1.272       .  A
O939        C948   1.271       .  A
O940        C947   1.274       .  A
O942        C949   1.270       .  A
O943        C949   1.269   1_554  A
C944       C1064   1.488       .  S
C945        C970   1.442       .  S
C946       C1077   1.489       .  S
C947       C1004   1.487       .  S
C948        C997   1.485       .  S
C949        C967   1.438       .  S
Zn950       O955   1.979       .  S
Zn950       O959   2.005   1_556  S
Zn950       O966   1.999       .  S
Zn950       O954   1.952       .  S
Zn951       O956   2.021   1_556  S
Zn951       O958   1.988       .  S
Zn951       O962   2.021       .  S
Zn951       O954   1.950       .  S
Zn952       O957   2.022       .  S
Zn952       O960   2.028       .  S
Zn952       O963   1.985       .  S
Zn952       O954   1.953   1_554  S
Zn953       O961   1.994       .  S
Zn953       O964   2.025       .  S
Zn953       O965   2.018       .  S
Zn953       O954   1.953       .  S
O955        C967   1.269       .  A
O956        C968   1.274       .  A
O957        C969   1.274       .  A
O958        C967   1.270       .  A
O959        C969   1.271       .  A
O960        C968   1.274       .  A
O961        C970   1.271       .  A
O962        C971   1.274       .  A
O963        C970   1.270   1_554  A
O964        C971   1.274       .  A
O965        C972   1.273       .  A
O966        C972   1.271       .  A
C968       C1047   1.487       .  S
C969       C1034   1.485       .  S
C971        C987   1.490       .  S
C972        C977   1.483       .  S
C973        C974   1.403       .  A
C973        C978   1.396       .  A
C973        H980   1.083       .  S
C974        C975   1.406       .  A
C975        C976   1.397       .  A
C975        F982   1.357       .  S
C976        C977   1.408       .  A
C976        H981   1.083       .  S
C977        C978   1.409       .  A
C978        F979   1.357       .  S
C983        C984   1.403       .  A
C983        C988   1.399       .  A
C983        H990   1.083       .  S
C984        C985   1.405       .  A
C985        C986   1.401       .  A
C985        F992   1.357       .  S
C986        C987   1.409       .  A
C986        H991   1.083       .  S
C987        C988   1.411       .  A
C988        F989   1.357       .  S
C993        C998   1.397       .  A
C993       H1000   1.083       .  S
C994        C995   1.405       .  A
C995        C996   1.398       .  A
C995       F1002   1.357       .  S
C996        C997   1.409       .  A
C996       H1001   1.083       .  S
C998        F999   1.357       .  S
C1003      C1008   1.398       .  A
C1003      H1010   1.083       .  S
C1004      C1005   1.412       .  A
C1005      C1006   1.399       .  A
C1005      F1012   1.357       .  S
C1006      C1007   1.403       .  A
C1006      H1011   1.083       .  S
C1008      F1009   1.357       .  S
C1013      C1014   1.408       .  A
C1013      C1018   1.403       .  A
C1013      H1020   1.081       .  S
C1015      C1016   1.400       .  A
C1015      F1022   1.357       .  S
C1016      H1021   1.081       .  S
C1017      C1018   1.413       .  A
C1018      F1019   1.357       .  S
C1023      C1028   1.402       .  A
C1023      H1030   1.083       .  S
C1024      C1025   1.412       .  A
C1025      C1026   1.401       .  A
C1025      F1032   1.356       .  S
C1026      C1027   1.409   1_565  A
C1026      H1031   1.083       .  S
C1028      F1029   1.355       .  S
C1033      C1034   1.408       .  A
C1033      C1038   1.399       .  A
C1033      H1040   1.083       .  S
C1034      C1035   1.409       .  A
C1035      C1036   1.396       .  A
C1035      F1042   1.357       .  S
C1036      C1037   1.404       .  A
C1036      H1041   1.082       .  S
C1037      C1038   1.406       .  A
C1038      F1039   1.357       .  S
C1043      C1044   1.408       .  A
C1043      C1048   1.400       .  A
C1043      H1050   1.081       .  S
C1044      C1045   1.411       .  A
C1045      C1046   1.401       .  A
C1045      F1052   1.356       .  S
C1046      C1047   1.406       .  A
C1046      H1051   1.083       .  S
C1047      C1048   1.408       .  A
C1048      F1049   1.358       .  S
C1053      C1054   1.405       .  A
C1053      C1058   1.400       .  A
C1053      H1060   1.083       .  S
C1055      C1056   1.398       .  A
C1055      F1062   1.357       .  S
C1056      C1057   1.404       .  A
C1056      H1061   1.083       .  S
C1058      F1059   1.357       .  S
C1063      C1064   1.407       .  A
C1063      C1068   1.398       .  A
C1063      H1070   1.083       .  S
C1065      C1066   1.402       .  A
C1065      F1072   1.357       .  S
C1066      H1071   1.083       .  S
C1067      C1068   1.408       .  A
C1068      F1069   1.356       .  S
C1073      C1074   1.403       .  A
C1073      C1078   1.400       .  A
C1073      H1080   1.083       .  S
C1075      C1076   1.398       .  A
C1075      F1082   1.357       .  S
C1076      H1081   1.083       .  S
C1077      C1078   1.412       .  A
C1078      F1079   1.357       .  S
C1083      C1088   1.400       .  A
C1083      H1090   1.082       .  S
C1084      C1085   1.413   1_545  A
C1085      C1086   1.403       .  A
C1085      F1092   1.357       .  S
C1086      C1087   1.406   1_565  A
C1086      H1091   1.082       .  S
C1088      F1089   1.356       .  S
C1093      C1094   1.411   1_565  A
C1093      C1098   1.404       .  A
C1093      H1100   1.082       .  S
C1095      C1096   1.398       .  A
C1095      F1102   1.356       .  S
C1096      H1101   1.082       .  S
C1097      C1098   1.409       .  A
C1098      F1099   1.356       .  S
C1103      C1108   1.400       .  A
C1103      H1110   1.083       .  S
C1105      C1106   1.397       .  A
C1105      F1112   1.357       .  S
C1106      C1107   1.405       .  A
C1106      H1111   1.082       .  S
C1108      F1109   1.357       .  S
