geometry optimzed in LAMMPS
_audit_creation_date              2020-11-30 
_audit_creation_method            'lammps2cif' 
_symmetry_space_group_name_H-M    'P1' 
_symmetry_Int_Tables_number       1 
_symmetry_cell_setting            triclinic 
loop_ 
_symmetry_equiv_pos_as_xyz 
  x,y,z 
_cell_length_a                    26.35633182 
_cell_length_b                    32.24447927567312 
_cell_length_c                    27.34571661057368 
_cell_angle_alpha                 90.94658353617778 
_cell_angle_beta                  79.46789400668165 
_cell_angle_gamma                 89.84308972592085 
loop_ 
_atom_site_label 
_atom_site_type_symbol 
_atom_site_fract_x 
_atom_site_fract_y 
_atom_site_fract_z 
_atom_site_charge 
C1          C  0.29963155  0.12276969  0.29892071     0.86700
C2          C  0.31154632  0.08071983  0.26837371    -0.53500
C3          C  0.36400429  0.07460614  0.25091976     0.09600
C4          C  0.39760561  0.10897935  0.26528156     0.20600
C5          C  0.33391639  0.11891301  0.34018233    -0.54300
C6          C  0.38543750  0.11056603  0.32173900     0.09700
C7          C  0.32585077  0.15471025  0.26273033    -0.53800
C8          C  0.37610798  0.14829027  0.24660230     0.10300
H9          H  0.28280771  0.05896409  0.26032695     0.14800
H10         H  0.43945816  0.10425453  0.25054322     0.00500
H11         H  0.31774415  0.11811354  0.37959013     0.15100
H12         H  0.30664595  0.18235837  0.25250474     0.14900
C13         C  0.11330160  0.23079327  0.31318507     0.86700
C14         C  0.11066383  0.25257668  0.26222280    -0.53500
C15         C  0.06527679  0.27453247  0.26244600     0.09600
C16         C  0.02822952  0.27197913  0.31147100     0.21200
C17         C  0.10105376  0.26663996  0.35349912    -0.54300
C18         C  0.05614370  0.28783746  0.35138768     0.09700
C19         C  0.06374710  0.20479001  0.32361211    -0.53800
C20         C  0.02039411  0.22567750  0.31821055     0.10300
H21         H  0.13988467  0.24840120  0.22897630     0.14800
H22         H  0.99115353  0.28875736  0.31200579     0.00500
H23         H  0.12375010  0.27425571  0.38154845     0.15100
H24         H  0.06402287  0.17117732  0.32509710     0.14900
C25         C  0.13947851  0.14410620  0.00085966     0.86700
C26         C  0.13571308  0.10335024  0.03268162    -0.53500
C27         C  0.08768921  0.08530835  0.03909654     0.09600
C28         C  0.04966570  0.10793317  0.01473900     0.20600
C29         C  0.12042251  0.12948930  0.45145847    -0.54300
C30         C  0.07244790  0.11034150  0.45992031     0.09700
C31         C  0.09465527  0.17070379  0.02852820    -0.53800
C32         C  0.04807674  0.15224371  0.03352883     0.10300
H33         H  0.16599368  0.08997407  0.04924778     0.14800
H34         H  0.01101695  0.09314995  0.02265597     0.00500
H35         H  0.14195244  0.13488950  0.41433553     0.15100
H36         H  0.09795941  0.20379028  0.03559119     0.14900
C37         C  0.32599953  0.25249560  0.97131839     0.86700
C38         C  0.35880211  0.25982347  0.01350778    -0.53500
C39         C  0.41039210  0.26704407  0.99635604     0.09600
C40         C  0.42407685  0.26443910  0.94008765     0.20600
C41         C  0.33801206  0.29246669  0.43913550    -0.54300
C42         C  0.39068839  0.29793374  0.42270619     0.09700
C43         C  0.35349764  0.21887311  0.93604598    -0.53800
C44         C  0.40514284  0.22197396  0.92480545     0.10300
H45         H  0.34159812  0.26299166  0.05257794     0.14800
H46         H  0.46587066  0.26908484  0.92627918     0.00500
H47         H  0.30918563  0.31383189  0.43055024     0.15100
H48         H  0.33440475  0.19040474  0.92812164     0.14900
In49       In  0.48874410  0.04657585  0.39442082     1.36900
C50         C  0.42447957  0.09242590  0.34927879     0.77800
O51         O  0.52667522  0.04608611  0.46047180    -0.60700
O52         O  0.04587466  0.09747191  0.37845298    -0.51600
C53         C  0.42005099  0.33123545  0.39271104     0.70500
O54         O  0.40995112  0.36958639  0.39486276    -0.46400
C55         C  0.03090284  0.32323009  0.38198084     0.75200
O56         O  0.41957275  0.09098734  0.39585386    -0.58300
O57         O  0.02180876  0.35660401  0.36158935    -0.48400
O58         O  0.46481784  0.07417215  0.32666940    -0.54700
C59         C  0.03891592  0.09379924  0.42494855     0.85300
O60         O  0.46277148  0.32249619  0.36584951    -0.56600
O61         O  0.54411000  0.33198293  0.33590335    -0.59900
In62       In  0.46399247  0.99517301  0.15905863     1.36900
C63         C  0.44936476  0.28459450  0.02471176     0.77800
O64         O  0.52178080  0.04971803  0.15888484    -0.60700
O65         O  0.05760581  0.01538483  0.05266360    -0.51600
C66         C  0.39211791  0.04296096  0.21645369     0.70500
O67         O  0.39956458  0.00582464  0.22765556    -0.46400
C68         C  0.04209735  0.29177291  0.22084737     0.75200
O69         O  0.49079649  0.30044517  0.00230130    -0.58300
O70         O  0.04066164  0.27381646  0.17960511    -0.48400
O71         O  0.44392484  0.28747501  0.07147970    -0.54700
C72         C  0.06484817  0.05079443  0.07066945     0.85300
O73         O  0.42036064  0.05432720  0.17675856    -0.56600
O74         O  0.55758762  0.33122910  0.13320110    -0.59900
C75         C  0.00683353  0.19702842  0.98064778     0.23800
C76         C  0.00328780  0.17488886  0.02514553    -0.24300
C77         C  0.43859044  0.15588726  0.51393137     0.18700
C78         C  0.41362931  0.15986405  0.47389604     0.23700
C79         C  0.43538028  0.18504069  0.93365888    -0.24200
C80         C  0.48861311  0.19059565  0.92504621     0.18600
F81         F  0.96586596  0.23278411  0.92383392    -0.14200
F82         F  0.05285201  0.20769796  0.95316479    -0.16600
F83         F  0.36630596  0.14264381  0.47691470    -0.16600
F84         F  0.41395203  0.13714578  0.55570782    -0.14200
C85         C  0.22885251  0.16796882  0.02180430     0.23800
C86         C  0.18865300  0.17270234  0.99440233    -0.24300
C87         C  0.18951282  0.21031648  0.46754472     0.18700
C88         C  0.22972374  0.23986833  0.46546613     0.23700
C89         C  0.27151565  0.23341336  0.98994313    -0.24200
C90         C  0.26844608  0.19760312  0.02011608     0.18600
F91         F  0.30625630  0.18937092  0.04626420    -0.14200
F92         F  0.23083453  0.13498990  0.05130020    -0.16600
F93         F  0.22768217  0.27484041  0.43913446    -0.16600
F94         F  0.15011182  0.21927681  0.44393803    -0.14200
C95         C  0.40750618  0.21814383  0.25525426     0.23800
C96         C  0.40939551  0.18150802  0.22626711    -0.24300
C97         C  0.45386136  0.17074705  0.19217090     0.18700
C98         C  0.00932577  0.19141371  0.23889636     0.23700
C99         C  0.98698343  0.20773730  0.28634458    -0.24200
C100        C  0.45284279  0.23826401  0.25802251     0.18600
F101        F  0.45245333  0.27081461  0.29008676    -0.14200
F102        F  0.36421566  0.23025353  0.28736111    -0.16600
F103        F  0.06050180  0.18475644  0.22517972    -0.16600
F104        F  0.00117295  0.16488403  0.15983219    -0.14200
C105        C  0.24027308  0.18053969  0.34192186     0.23800
C106        C  0.24456465  0.14189384  0.31527902    -0.24300
C107        C  0.20564779  0.13389252  0.28727907     0.18700
C108        C  0.16563743  0.16270758  0.28552954     0.23700
C109        C  0.16120408  0.20123513  0.31227157    -0.24200
C110        C  0.20105335  0.20986349  0.33873812     0.18600
F111        F  0.20643261  0.24865967  0.35643841    -0.14200
F112        F  0.27925187  0.19327758  0.36455131    -0.16600
F113        F  0.13244172  0.15290920  0.25503974    -0.16600
F114        F  0.20820402  0.09966114  0.25750959    -0.14200
C115        C  0.29963882  0.12277516  0.79893424     0.86700
C116        C  0.31155421  0.08072273  0.76839257    -0.53500
C117        C  0.36401147  0.07461111  0.75093295     0.09600
C118        C  0.39761210  0.10898806  0.76528775     0.20600
C119        C  0.33392818  0.11892626  0.84019214    -0.54300
C120        C  0.38544847  0.11058025  0.82174591     0.09700
C121        C  0.32585131  0.15471289  0.76273627    -0.53800
C122        C  0.37610821  0.14829503  0.74660403     0.10300
H123        H  0.28281578  0.05896405  0.76035064     0.14800
H124        H  0.43946438  0.10426414  0.75054715     0.00500
H125        H  0.31775899  0.11812832  0.87960067     0.15100
H126        H  0.30664131  0.18235611  0.75250552     0.14900
C127        C  0.11330139  0.23078612  0.81319067     0.86700
C128        C  0.11066180  0.25256747  0.76222721    -0.53500
C129        C  0.06527377  0.27452223  0.76245025     0.09600
C130        C  0.02822768  0.27196901  0.81147612     0.21200
C131        C  0.10105300  0.26663358  0.85350308    -0.54300
C132        C  0.05614211  0.28782929  0.85139159     0.09700
C133        C  0.06374783  0.20478141  0.82361984    -0.53800
C134        C  0.02039380  0.22566723  0.81821740     0.10300
H135        H  0.13988277  0.24839262  0.72898109     0.14800
H136        H  0.99115109  0.28874695  0.81201113     0.00500
H137        H  0.12374979  0.27425116  0.88155125     0.15100
H138        H  0.06402453  0.17116937  0.82510736     0.14900
C139        C  0.13947689  0.14411072  0.50086288     0.86700
C140        C  0.13571274  0.10335455  0.53268487    -0.53500
C141        C  0.08768925  0.08531175  0.53910056     0.09600
C142        C  0.04966484  0.10793613  0.51474402     0.20600
C143        C  0.12042524  0.12948515  0.95145455    -0.54300
C144        C  0.07244992  0.11033846  0.95991555     0.09700
C145        C  0.09465351  0.17070762  0.52853268    -0.53800
C146        C  0.04807543  0.15224655  0.53353435     0.10300
H147        H  0.16599472  0.08997867  0.54925119     0.14800
H148        H  0.01101656  0.09315260  0.52266151     0.00500
H149        H  0.14195577  0.13488507  0.91433242     0.15100
H150        H  0.09795681  0.20379337  0.53559580     0.14900
C151        C  0.32599831  0.25250160  0.47131402     0.86700
C152        C  0.35880131  0.25982854  0.51350317    -0.53500
C153        C  0.41039132  0.26704853  0.49635145     0.09600
C154        C  0.42407588  0.26444422  0.44008312     0.20600
C155        C  0.33801274  0.29246020  0.93913940    -0.54300
C156        C  0.39068866  0.29792766  0.92270996     0.09700
C157        C  0.35349571  0.21887956  0.43604058    -0.53800
C158        C  0.40514077  0.22197978  0.42479972     0.10300
H159        H  0.34159756  0.26299632  0.55257322     0.14800
H160        H  0.46586960  0.26908932  0.42627505     0.00500
H161        H  0.30918602  0.31382523  0.93055388     0.15100
H162        H  0.33440210  0.19041128  0.42811518     0.14900
In163      In  0.48874652  0.04658325  0.89442879     1.36900
C164        C  0.42448940  0.09243967  0.84928612     0.77800
O165        O  0.52667014  0.04609133  0.96048323    -0.60700
O166        O  0.04587865  0.09747043  0.87844728    -0.51600
C167        C  0.42004959  0.33122937  0.89271391     0.70500
O168        O  0.40994958  0.36958034  0.89486715    -0.46400
C169        C  0.03090296  0.32322361  0.88198176     0.75200
O170        O  0.41957873  0.09099738  0.89586114    -0.58300
O171        O  0.02181236  0.35659688  0.86158746    -0.48400
O172        O  0.46482832  0.07418681  0.82667757    -0.54700
C173        C  0.03891804  0.09379802  0.92494296     0.85300
O174        O  0.46276887  0.32249025  0.86585010    -0.56600
O175        O  0.54410462  0.33197738  0.83590474    -0.59900
In176      In  0.46399357  0.99518131  0.65905674     1.36900
C177        C  0.44936405  0.28459813  0.52470765     0.77800
O178        O  0.52174984  0.04974583  0.65889059    -0.60700
O179        O  0.05760273  0.01538866  0.55266334    -0.51600
C180        C  0.39212149  0.04296730  0.71646138     0.70500
O181        O  0.39957315  0.00583145  0.72766066    -0.46400
C182        C  0.04209408  0.29176442  0.72085196     0.75200
O183        O  0.49079658  0.30044799  0.50229785    -0.58300
O184        O  0.04066126  0.27381107  0.67960726    -0.48400
O185        O  0.44392340  0.28747857  0.57147561    -0.54700
C186        C  0.06484863  0.05079646  0.57067190     0.85300
O187        O  0.42035538  0.05433394  0.67676144    -0.56600
O188        O  0.55758725  0.33122841  0.63319903    -0.59900
C189        C  0.00682988  0.19702753  0.48065221     0.23800
C190        C  0.00328567  0.17489067  0.52515173    -0.24300
C191        C  0.43859115  0.15588701  0.01394341     0.18700
C192        C  0.41363102  0.15986162  0.97390718     0.23700
C193        C  0.43537788  0.18504527  0.43364955    -0.24200
C194        C  0.48861080  0.19059972  0.42503601     0.18600
F195        F  0.96586062  0.23277721  0.42383509    -0.14200
F196        F  0.05284756  0.20769667  0.45316748    -0.16600
F197        F  0.36630796  0.14264093  0.97692600    -0.16600
F198        F  0.41395213  0.13714677  0.05572052    -0.14200
C199        C  0.22885481  0.16797215  0.52180008     0.23800
C200        C  0.18865102  0.17270784  0.49440380    -0.24300
C201        C  0.18951750  0.21030936  0.96754028     0.18700
C202        C  0.22972779  0.23986134  0.96546347     0.23700
C203        C  0.27151517  0.23341827  0.48994031    -0.24200
C204        C  0.26844881  0.19760623  0.52011015     0.18600
F205        F  0.30626308  0.18937186  0.54625266    -0.14200
F206        F  0.23084137  0.13499077  0.55129121    -0.16600
F207        F  0.22768937  0.27483148  0.93912777    -0.16600
F208        F  0.15011944  0.21926794  0.94392902    -0.14200
C209        C  0.40749822  0.21815408  0.75522774     0.23800
C210        C  0.40938958  0.18151157  0.72625249    -0.24300
C211        C  0.45385784  0.17074516  0.69216256     0.18700
C212        C  0.00932889  0.19140099  0.73890381     0.23700
C213        C  0.98698417  0.20772601  0.78635063    -0.24200
C214        C  0.45283562  0.23827119  0.75800116     0.18600
F215        F  0.45244324  0.27082662  0.79005932    -0.14200
F216        F  0.36420399  0.23027243  0.78732356    -0.16600
F217        F  0.06050392  0.18473487  0.72519434    -0.16600
F218        F  0.00118276  0.16488049  0.65983371    -0.14200
C219        C  0.24028074  0.18054796  0.84192836     0.23800
C220        C  0.24457178  0.14189735  0.81529540    -0.24300
C221        C  0.20565155  0.13388716  0.78730268     0.18700
C222        C  0.16563960  0.16269912  0.78554787     0.23700
C223        C  0.16120619  0.20123127  0.81227997    -0.24200
C224        C  0.20105855  0.20986820  0.83873978     0.18600
F225        F  0.20643786  0.24866867  0.85642758    -0.14200
F226        F  0.27926204  0.19329337  0.86455019    -0.16600
F227        F  0.13244345  0.15289319  0.75506127    -0.16600
F228        F  0.20820672  0.09964991  0.75754320    -0.14200
C229        C  0.36452893  0.47820899  0.18138371     0.86700
C230        C  0.37720234  0.44228755  0.14138380    -0.53500
C231        C  0.42062399  0.41980016  0.14569133     0.09600
C232        C  0.44668585  0.43478007  0.18756769     0.20600
C233        C  0.36325078  0.45619287  0.23282518    -0.54300
C234        C  0.40700458  0.43291249  0.23483500     0.09700
C235        C  0.41541940  0.50267264  0.17266635    -0.53800
C236        C  0.45678016  0.48098701  0.18158503     0.10300
H237        H  0.35554513  0.43563023  0.11219012     0.14800
H238        H  0.48267008  0.41709323  0.18908308     0.00500
H239        H  0.33271421  0.46108180  0.26485459     0.15100
H240        H  0.41780582  0.53591338  0.16824460     0.14900
C241        C  0.17583587  0.58333918  0.19605068     0.86700
C242        C  0.14115909  0.58664190  0.15502354    -0.53500
C243        C  0.08982134  0.59568259  0.17356303     0.09600
C244        C  0.07833580  0.59876166  0.22998418     0.21200
C245        C  0.16511445  0.62588451  0.22546713    -0.54300
C246        C  0.11301045  0.63283103  0.24297843     0.09700
C247        C  0.14916887  0.55231712  0.23356690    -0.53800
C248        C  0.09894531  0.55955384  0.24974485     0.10300
H249        H  0.15694849  0.58595706  0.11549328     0.14800
H250        H  0.03677353  0.60456250  0.24516244     0.00500
H251        H  0.19410808  0.64748172  0.23313999     0.15100
H252        H  0.16753945  0.52422582  0.24367006     0.14900
C253        C  0.14538457  0.45464789  0.02973469     0.86700
C254        C  0.13302610  0.41460027  0.06154776    -0.53500
C255        C  0.08028617  0.40888705  0.07671875     0.09600
C256        C  0.04719495  0.44214798  0.05834125     0.20600
C257        C  0.11416740  0.44721443  0.48645113    -0.54300
C258        C  0.06253015  0.43978456  0.50222375     0.09700
C259        C  0.11678571  0.48803382  0.06475946    -0.53800
C260        C  0.06508303  0.48488826  0.07397587     0.10300
H261        H  0.16163015  0.39343776  0.07094234     0.14800
H262        H  0.00528602  0.43714680  0.07097348     0.00500
H263        H  0.13237607  0.44438805  0.44759689     0.15100
H264        H  0.13545800  0.51639975  0.07382494     0.14900
C265        C  0.32979454  0.56375261  0.00522915     0.86700
C266        C  0.34646026  0.57789565  0.05580527    -0.53500
C267        C  0.39412444  0.59729477  0.04944833     0.09600
C268        C  0.41880760  0.60083123  0.99517270     0.20600
C269        C  0.33394316  0.60482709  0.47412365    -0.54300
C270        C  0.38143602  0.62345256  0.46982538     0.09700
C271        C  0.37568753  0.53775293  0.97867790    -0.53800
C272        C  0.42155226  0.55690777  0.97520220     0.10300
H273        H  0.32373541  0.57188530  0.09218164     0.14800
H274        H  0.45734123  0.61589457  0.98875823     0.00500
H275        H  0.30429507  0.61807907  0.45660484     0.15100
H276        H  0.37332908  0.50480161  0.97024651     0.14900
In277      In  0.48680689  0.38526825  0.34043693     1.36900
C278        C  0.42704807  0.41517841  0.27772582     0.77800
O279        O  0.50945676  0.41699059  0.40752905    -0.60700
O280        O  0.03110716  0.42211901  0.42542418    -0.51600
C281        C  0.40409543  0.65858745  0.43937640     0.70500
O282        O  0.41360907  0.69279888  0.45899114    -0.46400
C283        C  0.08635852  0.66496797  0.27722625     0.75200
O284        O  0.43173272  0.43475085  0.31715540    -0.58300
O285        O  0.07503602  0.70060229  0.26376967    -0.48400
O286        O  0.45177144  0.38153165  0.27197430    -0.54700
C287        C  0.02476341  0.42309789  0.47223481     0.85300
O288        O  0.42935363  0.65264441  0.39596640    -0.56600
O289        O  0.51905413  0.65120818  0.38744121    -0.59900
In290      In  0.51621480  0.32866363  0.06937738     1.36900
C291        C  0.42562115  0.61316934  0.08638880     0.77800
O292        O  0.56283212  0.38534226  0.05611131    -0.60700
O293        O  0.06120775  0.33739907  0.10508907    -0.51600
C294        C  0.44627800  0.38451412  0.11504299     0.70500
O295        O  0.46083884  0.35295383  0.13568978    -0.46400
C296        C  0.05016963  0.61247712  0.14567986     0.75200
O297        O  0.46752362  0.63157605  0.07152930    -0.58300
O298        O  0.05623148  0.61534677  0.09916689    -0.48400
O299        O  0.41490192  0.61099256  0.13303651    -0.54700
C300        C  0.05072634  0.37565388  0.10647746     0.85300
O301        O  0.46449593  0.38639033  0.06908276    -0.56600
O302        O  0.50243029  0.63860211  0.21953282    -0.59900
C303        C  0.05941724  0.54663825  0.02252898     0.23800
C304        C  0.03563600  0.52134208  0.06198242    -0.24300
C305        C  0.51387395  0.50189650  0.53777576     0.18700
C306        C  0.46746733  0.51267501  0.52458409     0.23700
C307        C  0.46743583  0.53471812  0.98061873    -0.24200
C308        C  0.51347575  0.54862075  0.95261515     0.18600
F309        F  0.06169705  0.57281256  0.94180459    -0.14200
F310        F  0.10713630  0.56270071  0.02104381    -0.16600
F311        F  0.42285880  0.50234701  0.55498487    -0.16600
F312        F  0.51426303  0.47594027  0.57627795    -0.14200
C313        C  0.24075553  0.46754703  0.03759318     0.23800
C314        C  0.19968953  0.47392074  0.01221473    -0.24300
C315        C  0.20312961  0.50965339  0.48187165     0.18700
C316        C  0.24202188  0.53962673  0.48144277     0.23700
C317        C  0.28142005  0.53484330  0.00970628    -0.24200
C318        C  0.28086369  0.49699130  0.03583402     0.18600
F319        F  0.32078735  0.48770853  0.05863852    -0.14200
F320        F  0.24195494  0.43300323  0.06483379    -0.16600
F321        F  0.24040702  0.57276213  0.45208591    -0.16600
F322        F  0.16644683  0.51742670  0.45423096    -0.14200
C323        C  0.46003879  0.51638762  0.26279825     0.23800
C324        C  0.48645838  0.49850485  0.21746776    -0.24300
C325        C  0.53715737  0.48475062  0.21472916     0.18700
C326        C  0.06457062  0.49250565  0.23379339     0.23700
C327        C  0.06428448  0.52628826  0.26696827    -0.24200
C328        C  0.48544105  0.52381975  0.30194850     0.18600
F329        F  0.45983469  0.54309472  0.34381414    -0.14200
F330        F  0.40894816  0.52483296  0.27095996    -0.16600
F331        F  0.10827586  0.47958836  0.20295112    -0.16600
F332        F  0.01778903  0.44733281  0.19026625    -0.14200
C333        C  0.31509583  0.54929596  0.20110397     0.23800
C334        C  0.31751049  0.50816573  0.18040184    -0.24300
C335        C  0.27448194  0.49572430  0.16026155     0.18700
C336        C  0.23380557  0.52349540  0.15681255     0.23700
C337        C  0.23058938  0.56389577  0.17906783    -0.24200
C338        C  0.27310831  0.57631518  0.20018262     0.18600
F339        F  0.27334130  0.61368068  0.22348888    -0.14200
F340        F  0.35182171  0.56373382  0.22547555    -0.16600
F341        F  0.19324543  0.50836051  0.13813891    -0.16600
F342        F  0.26907506  0.45539225  0.14776608    -0.14200
C343        C  0.36452650  0.47820831  0.68138770     0.86700
C344        C  0.37720125  0.44228804  0.64138638    -0.53500
C345        C  0.42062348  0.41980093  0.64569311     0.09600
C346        C  0.44668427  0.43477988  0.68757078     0.20600
C347        C  0.36324831  0.45619072  0.73282845    -0.54300
C348        C  0.40700266  0.43291073  0.73483788     0.09700
C349        C  0.41541643  0.50267256  0.67267156    -0.53800
C350        C  0.45677740  0.48098717  0.68159007     0.10300
H351        H  0.35554440  0.43563140  0.61219199     0.14800
H352        H  0.48266872  0.41709322  0.68908583     0.00500
H353        H  0.33271172  0.46107835  0.76485726     0.15100
H354        H  0.41780241  0.53591315  0.66825057     0.14900
C355        C  0.17583323  0.58334002  0.69605457     0.86700
C356        C  0.14115631  0.58664370  0.65502746    -0.53500
C357        C  0.08981884  0.59568589  0.67356713     0.09600
C358        C  0.07833378  0.59876507  0.72998821     0.21200
C359        C  0.16511352  0.62588563  0.72547109    -0.54300
C360        C  0.11300967  0.63283335  0.74298226     0.09700
C361        C  0.14916494  0.55231860  0.73357094    -0.53800
C362        C  0.09894145  0.55955651  0.74974880     0.10300
H363        H  0.15694546  0.58595810  0.61549712     0.14800
H364        H  0.03677179  0.60456708  0.74516693     0.00500
H365        H  0.19410681  0.64748151  0.73314386     0.15100
H366        H  0.16753393  0.52422596  0.74367273     0.14900
C367        C  0.14538154  0.45464836  0.52973972     0.86700
C368        C  0.13302422  0.41460016  0.56155211    -0.53500
C369        C  0.08028450  0.40888632  0.57672420     0.09600
C370        C  0.04719218  0.44214742  0.55834811     0.20600
C371        C  0.11417173  0.44721342  0.98644532    -0.54300
C372        C  0.06253423  0.43978432  0.00221709     0.09700
C373        C  0.11678292  0.48803337  0.56476574    -0.53800
C374        C  0.06508040  0.48488799  0.57398248     0.10300
H375        H  0.16162898  0.39343771  0.57094546     0.14800
H376        H  0.00528372  0.43714574  0.57098128     0.00500
H377        H  0.13238130  0.44438572  0.94759159     0.15100
H378        H  0.13545584  0.51640000  0.57383186     0.14900
C379        C  0.32979311  0.56375265  0.50523093     0.86700
C380        C  0.34645784  0.57789691  0.55580705    -0.53500
C381        C  0.39412201  0.59729594  0.54945042     0.09600
C382        C  0.41880625  0.60083110  0.49517500     0.20600
C383        C  0.33394378  0.60482791  0.97412348    -0.54300
C384        C  0.38143666  0.62345345  0.96982459     0.09700
C385        C  0.37568661  0.53775226  0.47868159    -0.53800
C386        C  0.42155138  0.55690719  0.47520602     0.10300
H387        H  0.32373205  0.57188723  0.59218393     0.14800
H388        H  0.45734010  0.61589437  0.48876070     0.00500
H389        H  0.30429428  0.61808078  0.95660603     0.15100
H390        H  0.37332826  0.50480088  0.47025112     0.14900
In391      In  0.48680346  0.38526367  0.84044009     1.36900
C392        C  0.42704571  0.41517551  0.77772861     0.77800
O393        O  0.50945558  0.41698586  0.90753148    -0.60700
O394        O  0.03111205  0.42211754  0.92541753    -0.51600
C395        C  0.40409524  0.65858937  0.93937658     0.70500
O396        O  0.41360943  0.69280015  0.95899228    -0.46400
C397        C  0.08635862  0.66497065  0.77723001     0.75200
O398        O  0.43172894  0.43474656  0.81715956    -0.58300
O399        O  0.07503075  0.70060297  0.76377141    -0.48400
O400        O  0.45176951  0.38152898  0.77197617    -0.54700
C401        C  0.02476834  0.42309673  0.97222811     0.85300
O402        O  0.42935216  0.65264790  0.89596582    -0.56600
O403        O  0.51905792  0.65121355  0.88744673    -0.59900
In404      In  0.51621502  0.32866501  0.56937490     1.36900
C405        C  0.42561826  0.61317112  0.58639093     0.77800
O406        O  0.56283853  0.38534093  0.55611116    -0.60700
O407        O  0.06120606  0.33739694  0.60509055    -0.51600
C408        C  0.44627874  0.38451619  0.61504260     0.70500
O409        O  0.46083618  0.35295345  0.63568714    -0.46400
C410        C  0.05016665  0.61248063  0.64568446     0.75200
O411        O  0.46751819  0.63158141  0.57153145    -0.58300
O412        O  0.05622702  0.61534889  0.59917139    -0.48400
O413        O  0.41490188  0.61099021  0.63303851    -0.54700
C414        C  0.05072581  0.37565208  0.60648263     0.85300
O415        O  0.46450056  0.38639529  0.56908339    -0.56600
O416        O  0.50243464  0.63860935  0.71953485    -0.59900
C417        C  0.05941600  0.54663983  0.52253649     0.23800
C418        C  0.03563386  0.52134205  0.56198824    -0.24300
C419        C  0.51387345  0.50189562  0.03777127     0.18700
C420        C  0.46746735  0.51267375  0.02457869     0.23700
C421        C  0.46743528  0.53471797  0.48062315    -0.24200
C422        C  0.51347515  0.54862018  0.45261880     0.18600
F423        F  0.06169636  0.57281989  0.44181452    -0.14200
F424        F  0.10713481  0.56270221  0.52105316    -0.16600
F425        F  0.42285865  0.50234368  0.05497770    -0.16600
F426        F  0.51426170  0.47593769  0.07627209    -0.14200
C427        C  0.24075337  0.46754779  0.53759585     0.23800
C428        C  0.19968621  0.47392192  0.51221903    -0.24300
C429        C  0.20313379  0.50965175  0.98186655     0.18700
C430        C  0.24202486  0.53962573  0.98143952     0.23700
C431        C  0.28141810  0.53484383  0.50970832    -0.24200
C432        C  0.28086155  0.49699208  0.53583645     0.18600
F433        F  0.32078522  0.48770955  0.55864109    -0.14200
F434        F  0.24195378  0.43300356  0.56483536    -0.16600
F435        F  0.24041010  0.57276135  0.95208309    -0.16600
F436        F  0.16645270  0.51742426  0.95422359    -0.14200
C437        C  0.46003344  0.51638754  0.76280415     0.23800
C438        C  0.48645414  0.49850477  0.71747407    -0.24300
C439        C  0.53715290  0.48475057  0.71473665     0.18700
C440        C  0.06456495  0.49251256  0.73378287     0.23700
C441        C  0.06427872  0.52629032  0.76696464    -0.24200
C442        C  0.48543507  0.52382118  0.80195449     0.18600
F443        F  0.45982841  0.54309824  0.84381851    -0.14200
F444        F  0.40894257  0.52483193  0.77096512    -0.16600
F445        F  0.10827065  0.47959736  0.70293986    -0.16600
F446        F  0.01778399  0.44734927  0.69024385    -0.14200
C447        C  0.31509279  0.54929553  0.70110832     0.23800
C448        C  0.31750761  0.50816511  0.68040642    -0.24300
C449        C  0.27447929  0.49572396  0.66026554     0.18700
C450        C  0.23380279  0.52349514  0.65681677     0.23700
C451        C  0.23058654  0.56389561  0.67907184    -0.24200
C452        C  0.27310580  0.57631508  0.70018588     0.18600
F453        F  0.27334002  0.61368149  0.72348971    -0.14200
F454        F  0.35181816  0.56373369  0.72548032    -0.16600
F455        F  0.19324358  0.50836075  0.63814152    -0.16600
F456        F  0.26907301  0.45539214  0.64776864    -0.14200
C457        C  0.31961126  0.79495070  0.25473491     0.86700
C458        C  0.32966831  0.75534400  0.21995430    -0.53500
C459        C  0.37958775  0.74060131  0.21509722     0.09600
C460        C  0.41284997  0.76509944  0.24403218     0.20600
C461        C  0.33631270  0.78027711  0.30466142    -0.54300
C462        C  0.38609490  0.76464088  0.29799914     0.09700
C463        C  0.36187128  0.82473113  0.23165957    -0.53800
C464        C  0.41010441  0.80989047  0.22874989     0.10300
H465        H  0.30118220  0.74064398  0.20152848     0.14800
H466        H  0.45315261  0.75300794  0.23794499     0.00500
H467        H  0.31142818  0.78160393  0.34089609     0.15100
H468        H  0.35475810  0.85762728  0.22730627     0.14900
C469        C  0.14479800  0.91340482  0.25769066     0.86700
C470        C  0.13109731  0.93088077  0.20781146    -0.53500
C471        C  0.08127337  0.94618343  0.21316402     0.09600
C472        C  0.05150764  0.94266643  0.26575929     0.21200
C473        C  0.13188586  0.95096739  0.29543450    -0.54300
C474        C  0.08201816  0.96534564  0.29891183     0.09700
C475        C  0.10211187  0.88219963  0.27563329    -0.53800
C476        C  0.05396300  0.89689829  0.27687318     0.10300
H477        H  0.15762314  0.93099370  0.17250000     0.14800
H478        H  0.01124298  0.95465197  0.27050914     0.00500
H479        H  0.15874710  0.96529127  0.31610638     0.15100
H480        H  0.10953085  0.84907953  0.27736296     0.14900
C481        C  0.15385258  0.79335476  0.99157305     0.86700
C482        C  0.14184402  0.75428608  0.02534258    -0.53500
C483        C  0.09351447  0.73808668  0.02443822     0.09600
C484        C  0.06311980  0.76149413  0.99200712     0.20600
C485        C  0.14389634  0.77761362  0.43894581    -0.54300
C486        C  0.09497403  0.76197675  0.43997846     0.09700
C487        C  0.10879566  0.82237899  0.01105941    -0.53800
C488        C  0.06233689  0.80604064  0.00962873     0.10300
H489        H  0.16765560  0.74127473  0.04778451     0.14800
H490        H  0.02360855  0.74881055  0.99376086     0.00500
H491        H  0.17165697  0.77992135  0.40460012     0.15100
H492        H  0.11329962  0.85542391  0.01796018     0.14900
C493        C  0.31679448  0.91666446  0.00674414     0.86700
C494        C  0.33006904  0.93136174  0.05844207    -0.53500
C495        C  0.38035484  0.94428546  0.05570222     0.09600
C496        C  0.41059241  0.94322039  0.00294931     0.20600
C497        C  0.33069887  0.95528856  0.47284886    -0.54300
C498        C  0.38064552  0.96857737  0.47179039     0.09700
C499        C  0.35887296  0.88544239  0.98533405    -0.53800
C500        C  0.40705520  0.89866790  0.98559588     0.10300
H501        H  0.30295682  0.93113939  0.09340296     0.14800
H502        H  0.45103740  0.95410920  0.00004949     0.00500
H503        H  0.30490283  0.97018421  0.45182359     0.15100
H504        H  0.35110478  0.85290402  0.97843452     0.14900
In505      In  0.47585343  0.71179309  0.39446811     1.36900
C506        C  0.41685626  0.74868962  0.33499203     0.77800
O507        O  0.49458146  0.73040536  0.46919846    -0.60700
O508        O  0.08962092  0.73982664  0.35446397    -0.51600
C509        C  0.41097712  0.00044335  0.44128625     0.70500
O510        O  0.42972695  0.03087709  0.46155532    -0.46400
C511        C  0.05344436  0.99928508  0.32911012     0.75200
O512        O  0.41013693  0.75718572  0.38094709    -0.58300
O513        O  0.04542499  0.03355257  0.31012915    -0.48400
O514        O  0.45515092  0.72533529  0.32072942    -0.54700
C515        C  0.06830864  0.74947081  0.39807381     0.85300
O516        O  0.43081796  0.99421201  0.39603638    -0.56600
O517        O  0.52656106  0.98447755  0.38176067    -0.59900
In518      In  0.48381404  0.65416513  0.14426025     1.36900
C519        C  0.40817401  0.95696506  0.09671943     0.77800
O520        O  0.53081543  0.71400112  0.14034791    -0.60700
O521        O  0.04371999  0.67612463  0.03340277    -0.51600
C522        C  0.40695920  0.70610972  0.18518646     0.70500
O523        O  0.41650562  0.67256114  0.20499405    -0.46400
C524        C  0.05202689  0.96286425  0.17566403     0.75200
O525        O  0.45679039  0.95747509  0.09029624    -0.58300
O526        O  0.05755932  0.95254763  0.13024250    -0.48400
O527        O  0.38721558  0.97110125  0.13857527    -0.54700
C528        C  0.06398176  0.70535387  0.05442631     0.85300
O529        O  0.43564682  0.71243551  0.14373801    -0.56600
O530        O  0.48485314  0.96107915  0.22451601    -0.59900
C531        C  0.03321920  0.85532771  0.95366010     0.23800
C532        C  0.02248906  0.83147654  0.99691873    -0.24300
C533        C  0.46641801  0.83359447  0.56863299     0.18700
C534        C  0.42931278  0.84753553  0.54331915     0.23700
C535        C  0.44397357  0.87067206  0.99974060    -0.24200
C536        C  0.49550252  0.87921258  0.98157497     0.18600
F537        F  0.00356790  0.89763827  0.89500870    -0.14200
F538        F  0.08224269  0.86130956  0.92912633    -0.16600
F539        F  0.37906651  0.84032331  0.56304094    -0.16600
F540        F  0.45211833  0.80990269  0.60938875    -0.14200
C541        C  0.21963190  0.82787402  0.03811413     0.23800
C542        C  0.20185818  0.82096765  0.99291621    -0.24300
C543        C  0.21517140  0.85178248  0.45626414     0.18700
C544        C  0.24686705  0.88574297  0.46310886     0.23700
C545        C  0.26630786  0.89175662  0.00754984    -0.24200
C546        C  0.25187984  0.86151403  0.04476873     0.18600
F547        F  0.27104525  0.86276945  0.08750186    -0.14200
F548        F  0.20435517  0.80295324  0.07746114    -0.16600
F549        F  0.25982475  0.91204439  0.42473326    -0.16600
F550        F  0.19504176  0.85078845  0.41410623    -0.14200
C551        C  0.43592725  0.85548727  0.29180249     0.23800
C552        C  0.44856911  0.83592324  0.24456061    -0.24300
C553        C  0.49958087  0.82582451  0.22452786     0.18700
C554        C  0.03312936  0.85418088  0.20800701     0.23700
C555        C  0.01726090  0.87223400  0.25583514    -0.24200
C556        C  0.47410625  0.86395464  0.31874265     0.18600
F557        F  0.46171635  0.88416515  0.36330014    -0.14200
F558        F  0.38639016  0.86408689  0.31341097    -0.16600
F559        F  0.08351159  0.84645223  0.18888035    -0.16600
F560        F  0.01224690  0.82513095  0.13426619    -0.14200
C561        C  0.25616094  0.85118769  0.29754168     0.23800
C562        C  0.26885859  0.82076313  0.25899164    -0.24300
C563        C  0.24552834  0.82615166  0.21682128     0.18700
C564        C  0.20965701  0.85835063  0.21459799     0.23700
C565        C  0.19591173  0.88807390  0.25377556    -0.24200
C566        C  0.21979008  0.88307546  0.29561399     0.18600
F567        F  0.20751702  0.90853077  0.33596774    -0.14200
F568        F  0.28086348  0.85178386  0.33686167    -0.16600
F569        F  0.18696623  0.85917261  0.17396655    -0.16600
F570        F  0.25872601  0.80118882  0.17606653    -0.14200
C571        C  0.31961010  0.79495128  0.75473570     0.86700
C572        C  0.32966690  0.75534350  0.71995676    -0.53500
C573        C  0.37958680  0.74060156  0.71509902     0.09600
C574        C  0.41284941  0.76510126  0.74403214     0.20600
C575        C  0.33631277  0.78027973  0.80466204    -0.54300
C576        C  0.38609506  0.76464427  0.79799948     0.09700
C577        C  0.36186928  0.82473148  0.73165788    -0.53800
C578        C  0.41010278  0.80989154  0.72874775     0.10300
H579        H  0.30118055  0.74064249  0.70153205     0.14800
H580        H  0.45315236  0.75301024  0.73794482     0.00500
H581        H  0.31142837  0.78160673  0.84089731     0.15100
H582        H  0.35475550  0.85762716  0.72730295     0.14900
C583        C  0.14480085  0.91340662  0.75768899     0.86700
C584        C  0.13109750  0.93087944  0.70780930    -0.53500
C585        C  0.08127297  0.94618107  0.71316282     0.09600
C586        C  0.05150941  0.94266564  0.76575911     0.21200
C587        C  0.13188931  0.95097087  0.79543027    -0.54300
C588        C  0.08202083  0.96534771  0.79890847     0.09700
C589        C  0.10211648  0.88220134  0.77563616    -0.53800
C590        C  0.05396700  0.89689838  0.77687688     0.10300
H591        H  0.15762202  0.93099245  0.67249804     0.14800
H592        H  0.01124354  0.95465012  0.77050962     0.00500
H593        H  0.15875133  0.96529631  0.81610049     0.15100
H594        H  0.10953654  0.84908168  0.77736870     0.14900
C595        C  0.15384982  0.79335269  0.49157266     0.86700
C596        C  0.14183945  0.75428424  0.52534208    -0.53500
C597        C  0.09350994  0.73808538  0.52443620     0.09600
C598        C  0.06311681  0.76149344  0.49200427     0.20600
C599        C  0.14389787  0.77761535  0.93894668    -0.54300
C600        C  0.09497571  0.76197740  0.93998068     0.09700
C601        C  0.10879332  0.82237761  0.51105776    -0.53800
C602        C  0.06233453  0.80603972  0.50962656     0.10300
H603        H  0.16764958  0.74127281  0.54778522     0.14800
H604        H  0.02360511  0.74881050  0.49375691     0.00500
H605        H  0.17165738  0.77992354  0.90460057     0.15100
H606        H  0.11329772  0.85542277  0.51795904     0.14900
C607        C  0.31679695  0.91665823  0.50674229     0.86700
C608        C  0.33007156  0.93136033  0.55843899    -0.53500
C609        C  0.38035725  0.94428639  0.55569738     0.09600
C610        C  0.41059484  0.94321507  0.50294424     0.20600
C611        C  0.33069591  0.95529799  0.97285572    -0.54300
C612        C  0.38064275  0.96858689  0.97179938     0.09700
C613        C  0.35887511  0.88543463  0.48533737    -0.53800
C614        C  0.40705719  0.89866054  0.48559805     0.10300
H615        H  0.30295905  0.93113899  0.59340024     0.14800
H616        H  0.45103977  0.95410397  0.50004169     0.00500
H617        H  0.30490040  0.97019412  0.95183107     0.15100
H618        H  0.35110644  0.85289481  0.47844156     0.14900
In619      In  0.47585216  0.71179683  0.89446860     1.36900
C620        C  0.41685605  0.74869356  0.83499244     0.77800
O621        O  0.49457426  0.73041779  0.96919853    -0.60700
O622        O  0.08961930  0.73982960  0.85446574    -0.51600
C623        C  0.41097597  0.00045312  0.94129590     0.70500
O624        O  0.42972737  0.03088623  0.96156495    -0.46400
C625        C  0.05344649  0.99928712  0.82910575     0.75200
O626        O  0.41013667  0.75719016  0.88094734    -0.58300
O627        O  0.04542917  0.03355512  0.81012488    -0.48400
O628        O  0.45515008  0.72533872  0.82073012    -0.54700
C629        C  0.06830874  0.74947099  0.89807699     0.85300
O630        O  0.43081667  0.99422194  0.89604590    -0.56600
O631        O  0.52655376  0.98448140  0.88175812    -0.59900
In632      In  0.48381245  0.65416405  0.64426312     1.36900
C633        C  0.40817773  0.95697328  0.59671207     0.77800
O634        O  0.53082245  0.71399547  0.64034978    -0.60700
O635        O  0.04370962  0.67612630  0.53340309    -0.51600
C636        C  0.40695844  0.70611007  0.68518811     0.70500
O637        O  0.41649925  0.67255912  0.70499370    -0.46400
C638        C  0.05202604  0.96286274  0.67566361     0.75200
O639        O  0.45679367  0.95750509  0.59027871    -0.58300
O640        O  0.05755628  0.95254559  0.63024236    -0.48400
O641        O  0.38722016  0.97108983  0.63857825    -0.54700
C642        C  0.06397575  0.70535392  0.55442528     0.85300
O643        O  0.43565102  0.71243724  0.64374270    -0.56600
O644        O  0.48485056  0.96106544  0.72450084    -0.59900
C645        C  0.03321402  0.85532499  0.45365839     0.23800
C646        C  0.02248618  0.83147586  0.49691877    -0.24300
C647        C  0.46641582  0.83360215  0.06862935     0.18700
C648        C  0.42931074  0.84754159  0.04331431     0.23700
C649        C  0.44397579  0.87066647  0.49974578    -0.24200
C650        C  0.49550477  0.87920705  0.48158037     0.18600
F651        F  0.00355807  0.89763012  0.39500428    -0.14200
F652        F  0.08223688  0.86130774  0.42912340    -0.16600
F653        F  0.37906437  0.84033041  0.06303665    -0.16600
F654        F  0.45211604  0.80991298  0.10938743    -0.14200
C655        C  0.21963184  0.82786945  0.53811364     0.23800
C656        C  0.20185595  0.82096454  0.49291641    -0.24300
C657        C  0.21517368  0.85178552  0.95626361     0.18700
C658        C  0.24686707  0.88574756  0.96310926     0.23700
C659        C  0.26631002  0.89175082  0.50754857    -0.24200
C660        C  0.25188273  0.86150797  0.54476709     0.18600
F661        F  0.27105294  0.86276157  0.58749773    -0.14200
F662        F  0.20435485  0.80294873  0.57746067    -0.16600
F663        F  0.25982479  0.91204972  0.92473430    -0.16600
F664        F  0.19504679  0.85078951  0.91410424    -0.14200
C665        C  0.43592625  0.85549282  0.79179606     0.23800
C666        C  0.44856753  0.83592580  0.74455590    -0.24300
C667        C  0.49957949  0.82582839  0.72452212     0.18700
C668        C  0.03313250  0.85417814  0.70801459     0.23700
C669        C  0.01726517  0.87223119  0.75584283    -0.24200
C670        C  0.47410606  0.86396419  0.81873375     0.18600
F671        F  0.46171653  0.88417662  0.86329007    -0.14200
F672        F  0.38638921  0.86409155  0.81340561    -0.16600
F673        F  0.08351446  0.84644957  0.68888687    -0.16600
F674        F  0.01224871  0.82513027  0.63427351    -0.14200
C675        C  0.25616160  0.85118959  0.79754175     0.23800
C676        C  0.26885752  0.82076357  0.75899305    -0.24300
C677        C  0.24552674  0.82615096  0.71682301     0.18700
C678        C  0.20965814  0.85835138  0.71459768     0.23700
C679        C  0.19591459  0.88807623  0.75377378    -0.24200
C680        C  0.21979213  0.88307808  0.79561275     0.18600
F681        F  0.20751918  0.90853429  0.83596578    -0.14200
F682        F  0.28086405  0.85178617  0.83686183    -0.16600
F683        F  0.18696766  0.85917276  0.67396605    -0.16600
F684        F  0.25872136  0.80118532  0.67607040    -0.14200
C685        C  0.81262738  0.12438177  0.23528485     0.86700
C686        C  0.82963980  0.08560942  0.20072438    -0.53500
C687        C  0.88255384  0.07927371  0.19213398     0.09600
C688        C  0.91174910  0.11041743  0.21857823     0.20600
C689        C  0.83624442  0.11497923  0.28295873    -0.54300
C690        C  0.88849330  0.10702002  0.27354898     0.09700
C691        C  0.84510849  0.15884386  0.20785742    -0.53800
C692        C  0.89632341  0.15362115  0.20320489     0.10300
H693        H  0.80375666  0.06556515  0.18482961     0.14800
H694        H  0.95407275  0.10456302  0.21060407     0.00500
H695        H  0.81305061  0.11185722  0.31977128     0.15100
H696        H  0.82880104  0.18856970  0.20011219     0.14900
C697        C  0.63894005  0.23936946  0.23123337     0.86700
C698        C  0.63836336  0.25471646  0.17669796    -0.53500
C699        C  0.59504350  0.27789915  0.17295993     0.09600
C700        C  0.55823031  0.28358794  0.22152887     0.21200
C701        C  0.63056412  0.28011238  0.26439607    -0.54300
C702        C  0.58781301  0.30260777  0.25821509     0.09700
C703        C  0.58743480  0.21712050  0.24527480    -0.53800
C704        C  0.54645874  0.24018890  0.23870015     0.10300
H705        H  0.66779127  0.24675021  0.14483849     0.14800
H706        H  0.52261511  0.30125940  0.21829853     0.00500
H707        H  0.65336190  0.29005705  0.29138685     0.15100
H708        H  0.58383035  0.18453597  0.25487927     0.14900
C709        C  0.61107117  0.14615090  0.04877203     0.86700
C710        C  0.59496346  0.11242117  0.08967260    -0.53500
C711        C  0.55063102  0.09150588  0.08461862     0.09600
C712        C  0.52703633  0.10611134  0.04153043     0.20600
C713        C  0.61277550  0.12206917  0.49793685    -0.54300
C714        C  0.56796102  0.10068711  0.49563240     0.09700
C715        C  0.56194138  0.17321305  0.05413530    -0.53800
C716        C  0.51947812  0.15272183  0.04576042     0.10300
H717        H  0.61551598  0.10564498  0.11944136     0.14800
H718        H  0.49045903  0.08986596  0.03887598     0.00500
H719        H  0.64463453  0.12382508  0.46667106     0.15100
H720        H  0.56239934  0.20664082  0.05443728     0.14900
C721        C  0.79642493  0.25179130  0.04813336     0.86700
C722        C  0.82770885  0.25534354  0.09220493    -0.53500
C723        C  0.87915030  0.26558786  0.07718437     0.09600
C724        C  0.89341569  0.27029130  0.02121658     0.20600
C725        C  0.80614601  0.29485614  0.52203790    -0.54300
C726        C  0.85791133  0.30332142  0.50797882     0.09700
C727        C  0.82722060  0.22171750  0.01017408    -0.53800
C728        C  0.87759023  0.23031216  0.99799317     0.10300
H729        H  0.81009220  0.25232500  0.13104046     0.14800
H730        H  0.93478258  0.27793033  0.00836749     0.00500
H731        H  0.77675642  0.31587086  0.51403887     0.15100
H732        H  0.81209664  0.19224266  0.99928830     0.14900
In733      In  0.97761214  0.05245584  0.37003462     1.36900
C734        C  0.92069941  0.09074443  0.30919225     0.77800
O735        O  0.99872853  0.07368071  0.44159820    -0.60700
O736        O  0.54121678  0.09864135  0.41516877    -0.51600
C737        C  0.88421173  0.33529623  0.47516063     0.70500
O738        O  0.89496732  0.37081437  0.49030446    -0.46400
C739        C  0.56031001  0.33605473  0.28984994     0.75200
O740        O  0.91323225  0.09792031  0.35545563    -0.58300
O741        O  0.54091548  0.36642320  0.27077706    -0.48400
O742        O  0.95890819  0.06731107  0.29455421    -0.54700
C743        C  0.54898167  0.08038941  0.45370675     0.85300
O744        O  0.91016995  0.32455789  0.43355190    -0.56600
O745        O  0.00613031  0.31972340  0.42585424    -0.59900
In746      In  0.99255760  0.99796210  0.11604753     1.36900
C747        C  0.91847056  0.27852006  0.10815641     0.77800
O748        O  0.03678591  0.05817189  0.11248126    -0.60700
O749        O  0.49762903  0.03114812  0.09244570    -0.51600
C750        C  0.91452099  0.04725518  0.16125541     0.70500
O751        O  0.92255619  0.01172384  0.17708388    -0.46400
C752        C  0.57547714  0.29505626  0.12987233     0.75200
O753        O  0.96185419  0.29271531  0.08826977    -0.58300
O754        O  0.56354843  0.27429835  0.09412725    -0.48400
O755        O  0.91119910  0.28021318  0.15493296    -0.54700
C756        C  0.52431269  0.05607171  0.11309575     0.85300
O757        O  0.94525735  0.05672368  0.12208016    -0.56600
O758        O  0.01338507  0.32332999  0.22855754    -0.59900
C759        C  0.51523538  0.18456337  0.96371571     0.23800
C760        C  0.48947389  0.16933041  0.01003069    -0.24300
C761        C  0.95548219  0.16078002  0.54962551     0.18700
C762        C  0.91167399  0.16985275  0.53113608     0.23700
C763        C  0.91487103  0.19706055  0.99108176    -0.24200
C764        C  0.96267164  0.20709791  0.96306254     0.18600
F765        F  0.51286400  0.20854715  0.88253676    -0.14200
F766        F  0.56649394  0.19173356  0.95440976    -0.16600
F767        F  0.86565991  0.15682242  0.55671432    -0.16600
F768        F  0.95170563  0.13625726  0.58990017    -0.14200
C769        C  0.69834819  0.16392722  0.07672329     0.23800
C770        C  0.65909746  0.17436880  0.05047037    -0.24300
C771        C  0.66497002  0.21290949  0.52555438     0.18700
C772        C  0.70463160  0.24084531  0.53044552     0.23700
C773        C  0.74213457  0.23164828  0.05951197    -0.24200
C774        C  0.73727799  0.19249279  0.08325716     0.18600
F775        F  0.77391811  0.17966233  0.10865204    -0.14200
F776        F  0.70210622  0.12469971  0.09267245    -0.16600
F777        F  0.70779670  0.27556230  0.50289119    -0.16600
F778        F  0.63388112  0.22354443  0.49357229    -0.14200
C779        C  0.90553062  0.21242051  0.25916687     0.23800
C780        C  0.92634290  0.18880052  0.21609084    -0.24300
C781        C  0.97941408  0.18367153  0.20344877     0.18700
C782        C  0.49932683  0.19070155  0.19552149     0.23700
C783        C  0.49892647  0.22206856  0.23156503    -0.24200
C784        C  0.93525158  0.21998976  0.29511900     0.18600
F785        F  0.91389809  0.24002171  0.33808874    -0.14200
F786        F  0.85536136  0.22453548  0.26904267    -0.16600
F787        F  0.54399916  0.17789742  0.16622600    -0.16600
F788        F  0.45473877  0.13709236  0.16157644    -0.14200
C789        C  0.74699516  0.17707328  0.28005831     0.23800
C790        C  0.75720096  0.14313057  0.24567653    -0.24300
C791        C  0.72447035  0.13965969  0.21048043     0.18700
C792        C  0.68689808  0.17036903  0.20717031     0.23700
C793        C  0.68199159  0.20722500  0.23674091    -0.24200
C794        C  0.71121911  0.20860258  0.27521682     0.18600
F795        F  0.70535195  0.23965131  0.30966216    -0.14200
F796        F  0.77476096  0.18195027  0.31689432    -0.16600
F797        F  0.65347172  0.16339606  0.17583181    -0.16600
F798        F  0.72946584  0.10705599  0.17811721    -0.14200
C799        C  0.81263052  0.12438680  0.73528187     0.86700
C800        C  0.82964062  0.08561378  0.70072179    -0.53500
C801        C  0.88255433  0.07927662  0.69213077     0.09600
C802        C  0.91175155  0.11041951  0.71857376     0.20600
C803        C  0.83624790  0.11498427  0.78295547    -0.54300
C804        C  0.88849639  0.10702356  0.77354471     0.09700
C805        C  0.84511300  0.15884800  0.70785339    -0.53800
C806        C  0.89632816  0.15362380  0.70320003     0.10300
H807        H  0.80375705  0.06557009  0.68482854     0.14800
H808        H  0.95407433  0.10456319  0.71059923     0.00500
H809        H  0.81305499  0.11186430  0.81976808     0.15100
H810        H  0.82880635  0.18857417  0.70010780     0.14900
C811        C  0.63893465  0.23936752  0.73123413     0.86700
C812        C  0.63836017  0.25471504  0.67669847    -0.53500
C813        C  0.59504091  0.27789789  0.67295889     0.09600
C814        C  0.55822634  0.28358666  0.72152696     0.21200
C815        C  0.63055741  0.28010970  0.76439735    -0.54300
C816        C  0.58780757  0.30260529  0.75821519     0.09700
C817        C  0.58742875  0.21711844  0.74527320    -0.53800
C818        C  0.54645327  0.24018724  0.73869668     0.10300
H819        H  0.66778934  0.24674878  0.64483954     0.14800
H820        H  0.52261284  0.30125909  0.71829538     0.00500
H821        H  0.65335301  0.29005412  0.79139090     0.15100
H822        H  0.58382395  0.18453399  0.75487694     0.14900
C823        C  0.61107029  0.14615110  0.54876221     0.86700
C824        C  0.59496088  0.11242444  0.58966501    -0.53500
C825        C  0.55062839  0.09151002  0.58461204     0.09600
C826        C  0.52703431  0.10611219  0.54152203     0.20600
C827        C  0.61277690  0.12207094  0.99794589    -0.54300
C828        C  0.56796345  0.10068822  0.99564098     0.09700
C829        C  0.56194153  0.17321448  0.55412271    -0.53800
C830        C  0.51947751  0.15272309  0.54574880     0.10300
H831        H  0.61551128  0.10564972  0.61943495     0.14800
H832        H  0.49045723  0.08986558  0.53886958     0.00500
H833        H  0.64463607  0.12382817  0.96667984     0.15100
H834        H  0.56240118  0.20664174  0.55442153     0.14900
C835        C  0.79642237  0.25178945  0.54813684     0.86700
C836        C  0.82770560  0.25534133  0.59220909    -0.53500
C837        C  0.87914759  0.26558473  0.57718898     0.09600
C838        C  0.89341372  0.27028758  0.52122118     0.20600
C839        C  0.80614688  0.29485816  0.02203430    -0.54300
C840        C  0.85791202  0.30332441  0.00797470     0.09700
C841        C  0.82721790  0.22171465  0.51017869    -0.53800
C842        C  0.87758755  0.23030858  0.49799810     0.10300
H843        H  0.81008801  0.25232346  0.63104491     0.14800
H844        H  0.93478120  0.27792580  0.50837222     0.00500
H845        H  0.77675680  0.31587190  0.01403511     0.15100
H846        H  0.81209367  0.19223964  0.49929349     0.14900
In847      In  0.97761395  0.05245746  0.87002823     1.36900
C848        C  0.92070265  0.09074753  0.80918711     0.77800
O849        O  0.99872884  0.07368145  0.94159198    -0.60700
O850        O  0.54122945  0.09864177  0.91517392    -0.51600
C851        C  0.88421154  0.33529906  0.97515561     0.70500
O852        O  0.89497524  0.37081440  0.99030146    -0.46400
C853        C  0.56030443  0.33605082  0.78985149     0.75200
O854        O  0.91323890  0.09792620  0.85544985    -0.58300
O855        O  0.54091087  0.36642040  0.77077997    -0.48400
O856        O  0.95890804  0.06731082  0.79454874    -0.54700
C857        C  0.54898497  0.08039103  0.95371560     0.85300
O858        O  0.91016376  0.32456142  0.93354374    -0.56600
O859        O  0.00612883  0.31971966  0.92585489    -0.59900
In860      In  0.99255698  0.99796283  0.61604847     1.36900
C861        C  0.91846836  0.27851681  0.60816063     0.77800
O862        O  0.03678881  0.05817186  0.61248545    -0.60700
O863        O  0.49765391  0.03113810  0.59243611    -0.51600
C864        C  0.91451964  0.04725622  0.66125396     0.70500
O865        O  0.92256181  0.01172871  0.67708906    -0.46400
C866        C  0.57547583  0.29505532  0.62987048     0.75200
O867        O  0.96185154  0.29271262  0.58827347    -0.58300
O868        O  0.56354695  0.27429787  0.59412501    -0.48400
O869        O  0.91119812  0.28020908  0.65493715    -0.54700
C870        C  0.52431091  0.05607876  0.61309306     0.85300
O871        O  0.94524954  0.05672095  0.62207297    -0.56600
O872        O  0.01338016  0.32332055  0.72856380    -0.59900
C873        C  0.51523404  0.18456518  0.46370436     0.23800
C874        C  0.48947314  0.16933080  0.51001872    -0.24300
C875        C  0.95548351  0.16077878  0.04961787     0.18700
C876        C  0.91167592  0.16985470  0.03112912     0.23700
C877        C  0.91486760  0.19705655  0.49108681    -0.24200
C878        C  0.96266751  0.20709372  0.46306619     0.18600
F879        F  0.51286063  0.20855370  0.38252780    -0.14200
F880        F  0.56649262  0.19173547  0.45439831    -0.16600
F881        F  0.86566121  0.15682513  0.05670661    -0.16600
F882        F  0.95170519  0.13625453  0.08989137    -0.14200
C883        C  0.69834361  0.16392705  0.57672249     0.23800
C884        C  0.65909750  0.17436727  0.55046268    -0.24300
C885        C  0.66496668  0.21291229  0.02556401     0.18700
C886        C  0.70463037  0.24084738  0.03045066     0.23700
C887        C  0.74213114  0.23164778  0.55951291    -0.24200
C888        C  0.73727190  0.19249298  0.58325953     0.18600
F889        F  0.77390932  0.17966288  0.60865794    -0.14200
F890        F  0.70210065  0.12470015  0.59267425    -0.16600
F891        F  0.70779200  0.27556538  0.00289833    -0.16600
F892        F  0.63387274  0.22354939  0.99358751    -0.14200
C893        C  0.90553797  0.21242241  0.75916125     0.23800
C894        C  0.92635057  0.18880188  0.71608599    -0.24300
C895        C  0.97942164  0.18366728  0.70345004     0.18700
C896        C  0.49932417  0.19069671  0.69551763     0.23700
C897        C  0.49892145  0.22206796  0.73155672    -0.24200
C898        C  0.93525427  0.21998427  0.79511908     0.18600
F899        F  0.91389927  0.24001748  0.83808740    -0.14200
F900        F  0.85537157  0.22454540  0.76903027    -0.16600
F901        F  0.54399852  0.17788591  0.66623101    -0.16600
F902        F  0.45473640  0.13708646  0.66157425    -0.14200
C903        C  0.74700105  0.17708080  0.78005369     0.23800
C904        C  0.75720434  0.14313588  0.74567513    -0.24300
C905        C  0.72446771  0.13965931  0.71048507     0.18700
C906        C  0.68689361  0.17036695  0.70717473     0.23700
C907        C  0.68198717  0.20722436  0.73674277    -0.24200
C908        C  0.71122020  0.20860672  0.77521445     0.18600
F909        F  0.70535586  0.23965759  0.80965682    -0.14200
F910        F  0.77477365  0.18196316  0.81688374    -0.16600
F911        F  0.65346708  0.16339160  0.67583689    -0.16600
F912        F  0.72945800  0.10705136  0.67812827    -0.14200
C913        C  0.83236759  0.47064950  0.26482085     0.86700
C914        C  0.83933500  0.42930864  0.23251880    -0.53500
C915        C  0.88413664  0.40820141  0.23541754     0.09600
C916        C  0.91689089  0.42913794  0.26783774     0.20600
C917        C  0.83890215  0.45636530  0.31838448    -0.54300
C918        C  0.88397443  0.43436978  0.31877292     0.09700
C919        C  0.88214470  0.49411264  0.24576322    -0.53800
C920        C  0.92526832  0.47248932  0.24881100     0.10300
H921        H  0.81385607  0.41778965  0.20875895     0.14800
H922        H  0.95409897  0.41261763  0.26768941     0.00500
H923        H  0.81129499  0.46347308  0.35182735     0.15100
H924        H  0.88344378  0.52666411  0.23584784     0.14900
C925        C  0.65139435  0.58200820  0.27431777     0.86700
C926        C  0.62579076  0.59105878  0.22788591    -0.53500
C927        C  0.57374683  0.59926607  0.23900858     0.09600
C928        C  0.55243465  0.59638505  0.29439673     0.21200
C929        C  0.63608532  0.62116740  0.30864348    -0.54300
C930        C  0.58317568  0.62773123  0.31920189     0.09700
C931        C  0.61950055  0.54813195  0.30377603    -0.53800
C932        C  0.56804089  0.55293145  0.30918441     0.10300
H933        H  0.64769414  0.59348373  0.19039713     0.14800
H934        H  0.51028111  0.60269332  0.30367205     0.00500
H935        H  0.66295386  0.64122492  0.32311564     0.15100
H936        H  0.63640552  0.51895679  0.31234560     0.14900
C937        C  0.67703367  0.45808491  0.94255237     0.86700
C938        C  0.66740502  0.41454851  0.96775224    -0.53500
C939        C  0.61562986  0.40623136  0.98250358     0.09600
C940        C  0.58003218  0.44001056  0.97149811     0.20600
C941        C  0.64418811  0.45549203  0.39949468    -0.54300
C942        C  0.59275755  0.44525052  0.41566725     0.09700
C943        C  0.64731627  0.48772931  0.98179769    -0.53800
C944        C  0.59712098  0.47912860  0.99536706     0.10300
H945        H  0.69669965  0.39311480  0.97487335     0.14800
H946        H  0.53867869  0.43283779  0.98533887     0.00500
H947        H  0.66107499  0.45824459  0.36042892     0.15100
H948        H  0.66295992  0.51682604  0.99318553     0.14900
C949        C  0.86561145  0.56128605  0.94152625     0.86700
C950        C  0.86303631  0.58543975  0.99256403    -0.53500
C951        C  0.90746177  0.60723846  0.99568387     0.09600
C952        C  0.94890299  0.60202903  0.95011768     0.20600
C953        C  0.88188799  0.59501266  0.40079066    -0.54300
C954        C  0.92594176  0.61609394  0.40631973     0.09700
C955        C  0.91520029  0.53472811  0.93639488    -0.53800
C956        C  0.95701658  0.55546307  0.94605963     0.10300
H957        H  0.83101769  0.58312386  0.02358316     0.14800
H958        H  0.98512310  0.61864559  0.95319743     0.00500
H959        H  0.86154589  0.60159582  0.37080047     0.15100
H960        H  0.91594244  0.50135908  0.93423714     0.14900
In961      In  0.96021037  0.38028371  0.42373889     1.36900
C962        C  0.90640636  0.41624792  0.35999209     0.77800
O963        O  0.98346449  0.40622710  0.49294821    -0.60700
O964        O  0.55940293  0.42662035  0.33971977    -0.51600
C965        C  0.95264245  0.65122486  0.37779695     0.70500
O966        O  0.97531575  0.67804592  0.39990957    -0.46400
C967        C  0.55243292  0.66049387  0.35011879     0.75200
O968        O  0.90542280  0.43162285  0.40283080    -0.58300
O969        O  0.54835115  0.69719463  0.33590895    -0.48400
O970        O  0.93465489  0.38462304  0.35132905    -0.54700
C971        C  0.55271079  0.43066639  0.38623858     0.85300
O972        O  0.96017598  0.65528073  0.33115825    -0.56600
O973        O  0.06200595  0.65473805  0.31928582    -0.59900
In974      In  0.98283478  0.32194504  0.15730939     1.36900
C975        C  0.92617749  0.62653215  0.03872746     0.77800
O976        O  0.00748532  0.38433337  0.13226477    -0.60700
O977        O  0.58002097  0.33798620  0.00092430    -0.51600
C978        C  0.90951818  0.37312730  0.20517178     0.70500
O979        O  0.92662053  0.34230608  0.22544740    -0.46400
C980        C  0.54047462  0.61516848  0.20430807     0.75200
O981        O  0.94835588  0.66100085  0.03371303    -0.58300
O982        O  0.54731790  0.60798932  0.15809839    -0.48400
O983        O  0.93374690  0.60731605  0.07671737    -0.54700
C984        C  0.58944511  0.37417953  0.01512050     0.85300
O985        O  0.92781152  0.37651649  0.15944061    -0.56600
O986        O  0.00834792  0.62875338  0.16797318    -0.59900
C987        C  0.55945245  0.53964762  0.96711247     0.23800
C988        C  0.55982087  0.51215958  0.00631099    -0.24300
C989        C  0.98249053  0.51578065  0.56810915     0.18700
C990        C  0.95787560  0.52256245  0.52823406     0.23700
C991        C  0.98534287  0.53890363  0.98323264    -0.24200
C992        C  0.03581908  0.55254508  0.98188942     0.18600
F993        F  0.51347158  0.57203562  0.91202441    -0.14200
F994        F  0.60373774  0.55228196  0.93790374    -0.16600
F995        F  0.90669573  0.51498294  0.53515607    -0.16600
F996        F  0.95637232  0.49732312  0.60946554    -0.14200
C997        C  0.77175165  0.46598456  0.95508028     0.23800
C998        C  0.73166136  0.47810543  0.93041980    -0.24300
C999        C  0.73598004  0.51857300  0.40999851     0.18700
C1000       C  0.77644789  0.54584689  0.41623849     0.23700
C1001       C  0.81752376  0.53305868  0.93894480    -0.24200
C1002       C  0.81251033  0.49290533  0.96025016     0.18600
F1003       F  0.84524375  0.47956366  0.98942582    -0.14200
F1004       F  0.77087542  0.42882608  0.97749406    -0.16600
F1005       F  0.77306670  0.58594210  0.40311414    -0.16600
F1006       F  0.69747591  0.53369356  0.38853082    -0.14200
C1007       C  0.97301201  0.52049119  0.29330322     0.23800
C1008       C  0.97256212  0.49222196  0.25394542    -0.24300
C1009       C  0.01829240  0.47648935  0.22630775     0.18700
C1010       C  0.56205164  0.49194406  0.25447799     0.23700
C1011       C  0.53845423  0.51749535  0.29494893    -0.24200
C1012       C  0.01939829  0.53711620  0.30043001     0.18600
F1013       F  0.01974963  0.56814980  0.33451055    -0.14200
F1014       F  0.92860703  0.53272339  0.32340782    -0.16600
F1015       F  0.61039247  0.47644814  0.25140881    -0.16600
F1016       F  0.56210211  0.46353121  0.17399310    -0.14200
C1017       C  0.78405596  0.53944315  0.29056456     0.23800
C1018       C  0.78668200  0.50139190  0.26319578    -0.24300
C1019       C  0.75160062  0.49720961  0.23012413     0.18700
C1020       C  0.71348573  0.52748983  0.22820601     0.23700
C1021       C  0.70644196  0.56270862  0.26082821    -0.24200
C1022       C  0.74430986  0.56901561  0.29027376     0.18600
F1023       F  0.74247052  0.60325832  0.31985923    -0.14200
F1024       F  0.82152292  0.54861342  0.31683296    -0.16600
F1025       F  0.68080504  0.52042659  0.19601685    -0.16600
F1026       F  0.75359354  0.46445034  0.19832260    -0.14200
C1027       C  0.83236432  0.47064647  0.76482056     0.86700
C1028       C  0.83933124  0.42930460  0.73252006    -0.53500
C1029       C  0.88413586  0.40819999  0.73541535     0.09600
C1030       C  0.91689275  0.42913978  0.76783046     0.20600
C1031       C  0.83890570  0.45636428  0.81838299    -0.54300
C1032       C  0.88398044  0.43437113  0.81876791     0.09700
C1033       C  0.88213849  0.49411151  0.74575710    -0.53800
C1034       C  0.92526482  0.47249089  0.74880132     0.10300
H1035       H  0.81385022  0.41778325  0.70876464     0.14800
H1036       H  0.95410310  0.41262170  0.76767866     0.00500
H1037       H  0.81130020  0.46347086  0.85182786     0.15100
H1038       H  0.88343419  0.52666251  0.73584120     0.14900
C1039       C  0.65138971  0.58200586  0.77432097     0.86700
C1040       C  0.62578583  0.59105496  0.72788888    -0.53500
C1041       C  0.57374228  0.59926382  0.73901188     0.09600
C1042       C  0.55243051  0.59638559  0.79440036     0.21200
C1043       C  0.63608249  0.62116672  0.80864446    -0.54300
C1044       C  0.58317310  0.62773230  0.81920319     0.09700
C1045       C  0.61949486  0.54813175  0.80378226    -0.53800
C1046       C  0.56803537  0.55293223  0.80919049     0.10300
H1047       H  0.64768849  0.59347828  0.69040055     0.14800
H1048       H  0.51027758  0.60269497  0.80367564     0.00500
H1049       H  0.66295286  0.64122446  0.82311567     0.15100
H1050       H  0.63639873  0.51895683  0.81235385     0.14900
C1051       C  0.67703422  0.45808733  0.44255312     0.86700
C1052       C  0.66740580  0.41455007  0.46775057    -0.53500
C1053       C  0.61563074  0.40623226  0.48250122     0.09600
C1054       C  0.58003274  0.44001213  0.47149775     0.20600
C1055       C  0.64418736  0.45548780  0.89949419    -0.54300
C1056       C  0.59275684  0.44524655  0.91566743     0.09700
C1057       C  0.64731662  0.48773035  0.48180005    -0.53800
C1058       C  0.59712128  0.47912917  0.49536920     0.10300
H1059       H  0.69670093  0.39311605  0.47487089     0.14800
H1060       H  0.53867939  0.43283894  0.48533823     0.00500
H1061       H  0.66107436  0.45823911  0.86042762     0.15100
H1062       H  0.66296004  0.51682646  0.49318915     0.14900
C1063       C  0.86561197  0.56128795  0.44152914     0.86700
C1064       C  0.86303468  0.58544117  0.49256720    -0.53500
C1065       C  0.90745885  0.60724058  0.49568869     0.09600
C1066       C  0.94890158  0.60203260  0.45012341     0.20600
C1067       C  0.88188732  0.59501042  0.90078727    -0.54300
C1068       C  0.92594202  0.61609087  0.90631512     0.09700
C1069       C  0.91520162  0.53473109  0.43639841    -0.53800
C1070       C  0.95701689  0.55546682  0.44606462     0.10300
H1071       H  0.83101493  0.58312427  0.52358629     0.14800
H1072       H  0.98512039  0.61864985  0.45320494     0.00500
H1073       H  0.86154388  0.60159471  0.87079845     0.15100
H1074       H  0.91594480  0.50136193  0.43424012     0.14900
In1075     In  0.96021492  0.38028219  0.92373363     1.36900
C1076       C  0.90641556  0.41624925  0.85998524     0.77800
O1077       O  0.98346982  0.40622573  0.99294176    -0.60700
O1078       O  0.55940094  0.42661429  0.83972148    -0.51600
C1079       C  0.95264074  0.65122361  0.87779470     0.70500
O1080       O  0.97530722  0.67804711  0.89991051    -0.46400
C1081       C  0.55243169  0.66049664  0.85011917     0.75200
O1082       O  0.90542226  0.43161841  0.90282825    -0.58300
O1083       O  0.54834506  0.69719539  0.83590448    -0.48400
O1084       O  0.93467232  0.38462920  0.85131855    -0.54700
C1085       C  0.55270956  0.43066117  0.88624009     0.85300
O1086       O  0.96018087  0.65527832  0.83115567    -0.56600
O1087       O  0.06201013  0.65474166  0.81929167    -0.59900
In1088     In  0.98283404  0.32194110  0.65731275     1.36900
C1089       C  0.92617217  0.62653361  0.53873359     0.77800
O1090       O  0.00748636  0.38433098  0.63227325    -0.60700
O1091       O  0.58001712  0.33798826  0.50091870    -0.51600
C1092       C  0.90951641  0.37312432  0.70517192     0.70500
O1093       O  0.92661991  0.34230476  0.72544961    -0.46400
C1094       C  0.54047071  0.61516705  0.70431149     0.75200
O1095       O  0.94834372  0.66100517  0.53372255    -0.58300
O1096       O  0.54730605  0.60797963  0.65810365    -0.48400
O1097       O  0.93374824  0.60731513  0.57671967    -0.54700
C1098       C  0.58944663  0.37417964  0.51511741     0.85300
O1099       O  0.92780924  0.37651131  0.65944038    -0.56600
O1100       O  0.00834564  0.62875792  0.66797819    -0.59900
C1101       C  0.55945197  0.53964851  0.46711685     0.23800
C1102       C  0.55982108  0.51216019  0.50631481    -0.24300
C1103       C  0.98249249  0.51578061  0.06810507     0.18700
C1104       C  0.95787632  0.52256084  0.02823036     0.23700
C1105       C  0.98534277  0.53890736  0.48323798    -0.24200
C1106       C  0.03581828  0.55254964  0.48189712     0.18600
F1107       F  0.51347090  0.57203333  0.41202666    -0.14200
F1108       F  0.60373720  0.55228435  0.43790925    -0.16600
F1109       F  0.90669619  0.51498186  0.03515419    -0.16600
F1110       F  0.95637555  0.49732420  0.10946293    -0.14200
C1111       C  0.77175246  0.46598619  0.45508123     0.23800
C1112       C  0.73166192  0.47810786  0.43042138    -0.24300
C1113       C  0.73597942  0.51857030  0.90999603     0.18700
C1114       C  0.77644698  0.54584464  0.91623571     0.23700
C1115       C  0.81752498  0.53306019  0.43894662    -0.24200
C1116       C  0.81251155  0.49290655  0.46025120     0.18600
F1117       F  0.84524543  0.47956410  0.48942596    -0.14200
F1118       F  0.77087636  0.42882715  0.47749383    -0.16600
F1119       F  0.77306544  0.58593960  0.90311042    -0.16600
F1120       F  0.69747490  0.53369054  0.88852873    -0.14200
C1121       C  0.97300592  0.52049165  0.79329726     0.23800
C1122       C  0.97255660  0.49222719  0.75393453    -0.24300
C1123       C  0.01828700  0.47649924  0.72629257     0.18700
C1124       C  0.56204563  0.49194339  0.75448657     0.23700
C1125       C  0.53844809  0.51749597  0.79495627    -0.24200
C1126       C  0.01939174  0.53711598  0.80042657     0.18600
F1127       F  0.01974217  0.56814646  0.83451123    -0.14200
F1128       F  0.92860090  0.53271942  0.82340506    -0.16600
F1129       F  0.61038531  0.47644566  0.75141960    -0.16600
F1130       F  0.56209865  0.46353141  0.67400083    -0.14200
C1131       C  0.78405266  0.53944016  0.79056442     0.23800
C1132       C  0.78667631  0.50138728  0.76319883    -0.24300
C1133       C  0.75159104  0.49720241  0.73013139     0.18700
C1134       C  0.71347717  0.52748330  0.72821196     0.23700
C1135       C  0.70643629  0.56270415  0.76083114    -0.24200
C1136       C  0.74430655  0.56901265  0.79027366     0.18600
F1137       F  0.74246989  0.60325718  0.81985580    -0.14200
F1138       F  0.82152222  0.54861222  0.81682913    -0.16600
F1139       F  0.68079531  0.52041939  0.69602400    -0.16600
F1140       F  0.75357929  0.46443989  0.69833514    -0.14200
C1141       C  0.82804027  0.79538584  0.23283933     0.86700
C1142       C  0.83715330  0.75457837  0.20007061    -0.53500
C1143       C  0.88926570  0.74532451  0.18516011     0.09600
C1144       C  0.92500835  0.77596875  0.20406902     0.20600
C1145       C  0.85852506  0.78579908  0.27618808    -0.54300
C1146       C  0.90969515  0.77515503  0.26024652     0.09700
C1147       C  0.85971080  0.82689945  0.19922237    -0.53800
C1148       C  0.91056281  0.81902880  0.18840097     0.10300
H1149       H  0.80675809  0.73582918  0.18937089     0.14800
H1150       H  0.96636138  0.76809697  0.19074614     0.00500
H1151       H  0.84028671  0.78384651  0.31495816     0.15100
H1152       H  0.84459390  0.85729480  0.19227061     0.14900
C1153       C  0.64639367  0.90900747  0.26524631     0.86700
C1154       C  0.61813488  0.92039490  0.22064714    -0.53500
C1155       C  0.56711455  0.93246516  0.23523960     0.09600
C1156       C  0.55005114  0.93131187  0.29120610     0.21200
C1157       C  0.63796560  0.94939587  0.29876294    -0.54300
C1158       C  0.58621930  0.96019993  0.31189229     0.09700
C1159       C  0.61208920  0.87774782  0.29677652    -0.53800
C1160       C  0.56177491  0.88766102  0.30664444     0.10300
H1161       H  0.63750400  0.92159378  0.18217321     0.14800
H1162       H  0.50888573  0.94027606  0.30367603     0.00500
H1163       H  0.66854018  0.96689719  0.31105138     0.15100
H1164       H  0.62497621  0.84638891  0.30268149     0.14900
C1165       C  0.64311886  0.79407484  0.02347730     0.86700
C1166       C  0.63588779  0.75379268  0.05618951    -0.53500
C1167       C  0.58471146  0.74061057  0.06681548     0.09600
C1168       C  0.54815432  0.76744380  0.04413499     0.20600
C1169       C  0.61841157  0.78107899  0.47696435    -0.54300
C1170       C  0.56835164  0.76714369  0.48844599     0.09700
C1171       C  0.60502360  0.82382371  0.05490728    -0.53800
C1172       C  0.55544258  0.81180258  0.06152646     0.10300
H1173       H  0.66681905  0.73830717  0.07010447     0.14800
H1174       H  0.50750059  0.75684295  0.05387273     0.00500
H1175       H  0.63929102  0.78077858  0.43896104     0.15100
H1176       H  0.61499150  0.85572955  0.06272293     0.14900
C1177       C  0.81880517  0.91516061  0.99550578     0.86700
C1178       C  0.84647469  0.92686937  0.04057392    -0.53500
C1179       C  0.89676321  0.94005497  0.02695881     0.09600
C1180       C  0.91428926  0.94004739  0.97090560     0.20600
C1181       C  0.82563080  0.95575752  0.46337721    -0.54300
C1182       C  0.87702189  0.96802233  0.45070933     0.09700
C1183       C  0.85474655  0.88501067  0.96250055    -0.53800
C1184       C  0.90452190  0.89633192  0.95307657     0.10300
H1185       H  0.82714007  0.92757628  0.07913249     0.14800
H1186       H  0.95513153  0.94978919  0.95947901     0.00500
H1187       H  0.79425673  0.97196421  0.45107256     0.15100
H1188       H  0.84347177  0.85343618  0.95470231     0.14900
In1189     In  0.01400570  0.71214009  0.33395738     1.36900
C1190       C  0.94740585  0.75772254  0.28985656     0.77800
O1191       O  0.02007394  0.74520006  0.40527859    -0.60700
O1192       O  0.54179901  0.75642000  0.40722547    -0.51600
C1193       C  0.90258049  0.00162843  0.41817785     0.70500
O1194       O  0.91148204  0.03718982  0.43478005    -0.46400
C1195       C  0.55955528  0.99369982  0.34423130     0.75200
O1196       O  0.93651915  0.74708490  0.33449852    -0.58300
O1197       O  0.55689646  0.03093421  0.33113764    -0.48400
O1198       O  0.99337390  0.74897511  0.27019664    -0.54700
C1199       C  0.53438324  0.75132988  0.45361498     0.85300
O1200       O  0.93017983  0.99315927  0.37630415    -0.56600
O1201       O  0.02332313  0.99246889  0.36960009    -0.59900
In1202     In  0.98593372  0.65866592  0.10058278     1.36900
C1203       C  0.93240814  0.95671171  0.05978610     0.77800
O1204       O  0.04589438  0.70985786  0.10033426    -0.60700
O1205       O  0.54999294  0.67139980  0.08061508    -0.51600
C1206       C  0.91637645  0.71192646  0.15261564     0.70500
O1207       O  0.91640554  0.67398512  0.16343219    -0.46400
C1208       C  0.53011567  0.95019636  0.20481349     0.75200
O1209       O  0.97006982  0.97953211  0.04274918    -0.58300
O1210       O  0.54061145  0.95847305  0.15932475    -0.48400
O1211       O  0.92842745  0.95066154  0.10578506    -0.54700
C1212       C  0.55877536  0.70650335  0.09839886     0.85300
O1213       O  0.95102268  0.72138756  0.11656131    -0.56600
O1214       O  0.01507863  0.98764443  0.18937374    -0.59900
C1215       C  0.53242436  0.86589922  0.00711302     0.23800
C1216       C  0.51825823  0.84146021  0.04993595    -0.24300
C1217       C  0.97219862  0.82258480  0.51924768     0.18700
C1218       C  0.93213944  0.83901732  0.50018259     0.23700
C1219       C  0.94255129  0.86541899  0.95876083    -0.24200
C1220       C  0.99311020  0.87215921  0.93458342     0.18600
F1221       F  0.50968393  0.90308662  0.94090159    -0.14200
F1222       F  0.58215888  0.87476684  0.98749778    -0.16600
F1223       F  0.88364045  0.83180589  0.52518606    -0.16600
F1224       F  0.96204709  0.79727639  0.55904138    -0.14200
C1225       C  0.72414469  0.82705268  0.04899200     0.23800
C1226       C  0.69425135  0.82026067  0.01178287    -0.24300
C1227       C  0.70132390  0.85008705  0.47300562     0.18700
C1228       C  0.73672159  0.88335920  0.47120855     0.23700
C1229       C  0.76706160  0.88991293  0.00821810    -0.24200
C1230       C  0.76000598  0.86006620  0.04698407     0.18600
F1231       F  0.78903471  0.86134277  0.08307274    -0.14200
F1232       F  0.71762828  0.80202616  0.08887210    -0.16600
F1233       F  0.74282854  0.90841589  0.43122391    -0.16600
F1234       F  0.67312230  0.84831280  0.43628620    -0.14200
C1235       C  0.93032295  0.87557732  0.24208162     0.23800
C1236       C  0.94496568  0.85239826  0.19736616    -0.24300
C1237       C  0.99713593  0.84548543  0.17843227     0.18700
C1238       C  0.53754785  0.83398552  0.25162020     0.23700
C1239       C  0.52542271  0.85628794  0.29720411    -0.24200
C1240       C  0.96553759  0.88225624  0.27269302     0.18600
F1241       F  0.94995605  0.90182207  0.31733451    -0.14200
F1242       F  0.88087299  0.88776601  0.25923634    -0.16600
F1243       F  0.58665945  0.82337048  0.23074443    -0.16600
F1244       F  0.51192776  0.80478726  0.18048694    -0.14200
C1245       C  0.76785725  0.84929440  0.28601563     0.23800
C1246       C  0.77462617  0.81780746  0.24804766    -0.24300
C1247       C  0.74210925  0.82113366  0.21262808     0.18700
C1248       C  0.70596703  0.85389884  0.21416519     0.23700
C1249       C  0.69923074  0.88544033  0.25199557    -0.24200
C1250       C  0.73075409  0.88145616  0.28835715     0.18600
F1251       F  0.72465925  0.90809344  0.32792055    -0.14200
F1252       F  0.79844743  0.85038622  0.32083987    -0.16600
F1253       F  0.67605760  0.85336971  0.17878567    -0.16600
F1254       F  0.74673518  0.79317274  0.17457320    -0.14200
C1255       C  0.82803914  0.79539120  0.73284179     0.86700
C1256       C  0.83715033  0.75458385  0.70007248    -0.53500
C1257       C  0.88926231  0.74532786  0.68516328     0.09600
C1258       C  0.92500624  0.77597002  0.70407356     0.20600
C1259       C  0.85852211  0.78580215  0.77619150    -0.54300
C1260       C  0.90969182  0.77515606  0.76025088     0.09700
C1261       C  0.85971271  0.82690399  0.69922606    -0.53800
C1262       C  0.91056413  0.81903102  0.68840600     0.10300
H1263       H  0.80675455  0.73583653  0.68937163     0.14800
H1264       H  0.96635857  0.76809683  0.69075153     0.00500
H1265       H  0.84028293  0.78385058  0.81496162     0.15100
H1266       H  0.84459847  0.85730071  0.69227514     0.14900
C1267       C  0.64639615  0.90901718  0.76524493     0.86700
C1268       C  0.61814167  0.92040738  0.72064414    -0.53500
C1269       C  0.56712085  0.93247640  0.73523394     0.09600
C1270       C  0.55005299  0.93132141  0.79119987     0.21200
C1271       C  0.63796575  0.94940400  0.79876452    -0.54300
C1272       C  0.58621905  0.96020804  0.81189132     0.09700
C1273       C  0.61208923  0.87775615  0.79677048    -0.53800
C1274       C  0.56177509  0.88766995  0.80663645     0.10300
H1275       H  0.63751318  0.92160704  0.68217081     0.14800
H1276       H  0.50888741  0.94028573  0.80366732     0.00500
H1277       H  0.66853880  0.96690380  0.81105710     0.15100
H1278       H  0.62497499  0.84639688  0.80267414     0.14900
C1279       C  0.64312125  0.79406846  0.52347826     0.86700
C1280       C  0.63589105  0.75378565  0.55618936    -0.53500
C1281       C  0.58471495  0.74060288  0.56681473     0.09600
C1282       C  0.54815711  0.76743629  0.54413539     0.20600
C1283       C  0.61840938  0.78108448  0.97696375    -0.54300
C1284       C  0.56834920  0.76714994  0.98844548     0.09700
C1285       C  0.60502572  0.82381618  0.55490957    -0.53800
C1286       C  0.55544498  0.81179472  0.56152843     0.10300
H1287       H  0.66682230  0.73830074  0.57010455     0.14800
H1288       H  0.50750401  0.75683522  0.55387283     0.00500
H1289       H  0.63928917  0.78078346  0.93896019     0.15100
H1290       H  0.61499320  0.85572181  0.56272696     0.14900
C1291       C  0.81880195  0.91515843  0.49551223     0.86700
C1292       C  0.84647275  0.92686602  0.54057995    -0.53500
C1293       C  0.89676157  0.94005097  0.52696405     0.09600
C1294       C  0.91428653  0.94004339  0.47091068     0.20600
C1295       C  0.82563333  0.95575923  0.96337009    -0.54300
C1296       C  0.87702395  0.96802492  0.95070289     0.09700
C1297       C  0.85474172  0.88500828  0.46250592    -0.53800
C1298       C  0.90451709  0.89632864  0.45308079     0.10300
H1299       H  0.82713871  0.92757348  0.57913839     0.14800
H1300       H  0.95512974  0.94978419  0.45948317     0.00500
H1301       H  0.79425933  0.97196509  0.95106479     0.15100
H1302       H  0.84346617  0.85343400  0.45470767     0.14900
In1303     In  0.01400383  0.71214100  0.83396071     1.36900
C1304       C  0.94740253  0.75772356  0.78986120     0.77800
O1305       O  0.02007434  0.74519771  0.90528376    -0.60700
O1306       O  0.54180261  0.75641969  0.90722343    -0.51600
C1307       C  0.90258145  0.00163117  0.91817128     0.70500
O1308       O  0.91148596  0.03719142  0.93477472    -0.46400
C1309       C  0.55955334  0.99370576  0.84423360     0.75200
O1310       O  0.93651562  0.74708442  0.83450260    -0.58300
O1311       O  0.55690179  0.03094273  0.83114758    -0.48400
O1312       O  0.99337125  0.74897778  0.77020175    -0.54700
C1313       C  0.53438101  0.75133626  0.95361422     0.85300
O1314       O  0.93017789  0.99316269  0.87629595    -0.56600
O1315       O  0.02332274  0.99247032  0.86959405    -0.59900
In1316     In  0.98592900  0.65866795  0.60058713     1.36900
C1317       C  0.93240692  0.95670876  0.55979049     0.77800
O1318       O  0.04589317  0.70985740  0.60033421    -0.60700
O1319       O  0.54999027  0.67139442  0.58061533    -0.51600
C1320       C  0.91637236  0.71192948  0.65261890     0.70500
O1321       O  0.91639827  0.67398771  0.66343406    -0.46400
C1322       C  0.53012340  0.95020535  0.70480565     0.75200
O1323       O  0.97007195  0.97952516  0.54275131    -0.58300
O1324       O  0.54062964  0.95850479  0.65932435    -0.48400
O1325       O  0.92842281  0.95066424  0.60579089    -0.54700
C1326       C  0.55877858  0.70649660  0.59839917     0.85300
O1327       O  0.95102142  0.72139030  0.61656689    -0.56600
O1328       O  0.01507996  0.98764487  0.68937384    -0.59900
C1329       C  0.53242649  0.86589352  0.50711828     0.23800
C1330       C  0.51826040  0.84145287  0.54993979    -0.24300
C1331       C  0.97220059  0.82258483  0.01924428     0.18700
C1332       C  0.93214293  0.83901932  0.00017853     0.23700
C1333       C  0.94254559  0.86541460  0.45876259    -0.24200
C1334       C  0.99310335  0.87215375  0.43458178     0.18600
F1335       F  0.50968660  0.90308009  0.44090619    -0.14200
F1336       F  0.58216095  0.87476212  0.48750371    -0.16600
F1337       F  0.88364308  0.83180661  0.02517909    -0.16600
F1338       F  0.96204654  0.79727371  0.05903523    -0.14200
C1339       C  0.72414426  0.82704839  0.54899547     0.23800
C1340       C  0.69425283  0.82025545  0.51178504    -0.24300
C1341       C  0.70132294  0.85009171  0.97300271     0.18700
C1342       C  0.73672324  0.88336223  0.97120343     0.23700
C1343       C  0.76705843  0.88991068  0.50822435    -0.24200
C1344       C  0.76000333  0.86006335  0.54698961     0.18600
F1345       F  0.78903062  0.86134079  0.58307941    -0.14200
F1346       F  0.71762724  0.80202155  0.58887514    -0.16600
F1347       F  0.74283026  0.90841841  0.93121829    -0.16600
F1348       F  0.67311946  0.84831846  0.93628466    -0.14200
C1349       C  0.93032666  0.87557461  0.74209200     0.23800
C1350       C  0.94496864  0.85239795  0.69737459    -0.24300
C1351       C  0.99713854  0.84548402  0.67844021     0.18700
C1352       C  0.53754769  0.83399479  0.75161124     0.23700
C1353       C  0.52542243  0.85629805  0.79719452    -0.24200
C1354       C  0.96554204  0.88225227  0.77270276     0.18600
F1355       F  0.94996163  0.90181740  0.81734481    -0.14200
F1356       F  0.88087695  0.88776289  0.75924849    -0.16600
F1357       F  0.58665975  0.82338261  0.73073360    -0.16600
F1358       F  0.51192608  0.80478825  0.68048317    -0.14200
C1359       C  0.76785620  0.84930075  0.78601765     0.23800
C1360       C  0.77462609  0.81781493  0.74804828    -0.24300
C1361       C  0.74211203  0.82114363  0.71262650     0.18700
C1362       C  0.70597047  0.85390926  0.71416364     0.23700
C1363       C  0.69923294  0.88544950  0.75199564    -0.24200
C1364       C  0.73075404  0.88146336  0.78835884     0.18600
F1365       F  0.72465781  0.90809947  0.82792340    -0.14200
F1366       F  0.79844417  0.85039042  0.82084383    -0.16600
F1367       F  0.67606269  0.85338160  0.67878267    -0.16600
F1368       F  0.74674069  0.79318491  0.67456922    -0.14200
loop_ 
_geom_bond_atom_site_label_1 
_geom_bond_atom_site_label_2 
_geom_bond_distance 
_geom_bond_site_symmetry_2 
_ccdc_geom_bond_type 
C1            C2   1.581       .  S
C1            C7   1.518       .  S
C1            C5   1.575       .  S
C1          C106   1.561       .  S
C2            H9   1.083       .  S
C2            C3   1.390       .  D
C3            C4   1.512       .  S
C3           C66   1.479       .  S
C4            C8   1.520       .  S
C4            C6   1.518       .  S
C4           H10   1.112       .  S
C5           H11   1.085       .  S
C5            C6   1.383       .  D
C6           C50   1.504       .  S
C7           H12   1.089       .  S
C7            C8   1.332       .  D
C8           C96   1.440       .  S
C13          C14   1.584       .  S
C13          C19   1.539       .  S
C13          C17   1.575       .  S
C13         C109   1.576       .  S
C14          H21   1.085       .  S
C14          C15   1.387       .  D
C15          C16   1.511       .  S
C15          C68   1.500       .  S
C16          C20   1.517       .  S
C16          C18   1.507       .  S
C16          H22   1.113   1_455  S
C17          H23   1.081       .  S
C17          C18   1.376       .  D
C18          C55   1.485       .  S
C19          H24   1.085       .  S
C19          C20   1.357       .  D
C20          C99   1.462   1_455  S
C25          C26   1.581       .  S
C25          C31   1.533       .  S
C25         C143   1.590   1_554  S
C25          C86   1.578   1_554  S
C26          H33   1.079       .  S
C26          C27   1.378       .  D
C27          C28   1.495       .  S
C27          C72   1.480       .  S
C28          C32   1.508       .  S
C28         C144   1.513   1_554  S
C28          H34   1.112       .  S
C29         C139   1.590       .  S
C29          H35   1.086       .  S
C29          C30   1.391       .  D
C30         C142   1.513       .  S
C30          C59   1.508       .  S
C31          H36   1.088       .  S
C31          C32   1.351       .  D
C32          C76   1.442       .  S
C37          C38   1.578   1_556  S
C37          C43   1.529       .  S
C37         C155   1.573       .  S
C37          C89   1.565       .  S
C38          H45   1.085       .  S
C38          C39   1.377   1_554  D
C39          C40   1.516       .  S
C39          C63   1.502   1_556  S
C40          C44   1.536       .  S
C40         C156   1.527       .  S
C40          H46   1.109       .  S
C41         C151   1.573       .  S
C41          H47   1.084       .  S
C41          C42   1.392       .  D
C42         C154   1.527       .  S
C42          C53   1.492       .  S
C43          H48   1.086       .  S
C43          C44   1.344       .  D
C44          C79   1.479       .  S
In49         O51   2.219       .  S
In49         O56   2.309       .  S
In49         O58   2.258       .  S
In49        O736   2.307       .  S
In49        O516   2.275   1_545  S
In49        O510   2.244       .  S
In49       O1197   2.303       .  S
In49        O517   2.228   1_545  S
C50          O56   1.258       .  A
C50          O58   1.266       .  A
O51         C743   1.255       .  A
O52        In733   2.356   1_455  S
O52          C59   1.259       .  A
C53          O60   1.255       .  A
C53          O54   1.262       .  A
O54        In277   2.346       .  S
C55          O57   1.262       .  A
C55         O745   1.264       .  A
O57        In961   2.247   1_455  S
C59         O735   1.260   1_455  A
O60        In277   2.208       .  S
O61        In277   2.271       .  S
O61         C739   1.263       .  A
In62         O64   2.329   1_565  S
In62         O73   2.225   1_565  S
In62         O67   2.309   1_565  S
In62        O749   2.221   1_565  S
In62        O525   2.260       .  S
In62       O1210   2.339       .  S
In62        O527   2.328       .  S
In62        O530   2.266       .  S
C63          O69   1.264       .  A
C63          O71   1.262       .  A
O64         C756   1.262       .  A
O65        In746   2.283   1_445  S
O65          C72   1.265       .  A
C66          O73   1.259       .  A
C66          O67   1.265       .  A
C68          O70   1.266       .  A
C68         O758   1.258       .  A
O69        In290   2.245       .  S
O70        In974   2.337   1_455  S
O71        In290   2.318       .  S
C72         O748   1.262       .  A
O74        In290   2.221       .  S
O74         C752   1.253       .  A
C75          C76   1.409   1_556  A
C75         C764   1.378   1_455  A
C75          F82   1.353       .  S
C76         C875   1.395   1_455  A
C77          C78   1.384       .  A
C77         C874   1.396       .  A
C77          F84   1.359       .  S
C78         C193   1.414       .  A
C78          F83   1.356       .  S
C79          C80   1.392       .  A
C79         C192   1.414       .  A
C80         C759   1.388       .  A
C80         F765   1.359       .  S
F81         C764   1.357       .  S
C85          C86   1.414   1_554  A
C85          C90   1.412       .  A
C85          F92   1.352       .  S
C86         C201   1.426       .  A
C87          C88   1.421       .  A
C87         C200   1.426       .  A
C87          F94   1.352       .  S
C88         C203   1.406       .  A
C88          F93   1.354       .  S
C89          C90   1.424   1_556  A
C89         C202   1.406       .  A
C90          F91   1.357       .  S
C95          C96   1.407       .  A
C95         C100   1.375       .  A
C95         F102   1.358       .  S
C96          C97   1.397       .  A
C97         C782   1.379       .  A
C97         F788   1.357       .  S
C98          C99   1.416   1_455  A
C98         C781   1.377   1_455  A
C98         F103   1.348       .  S
C99         C784   1.395       .  A
C100        C783   1.391       .  A
C100        F101   1.355       .  S
F104        C781   1.357   1_455  S
C105        C106   1.427       .  A
C105        C110   1.414       .  A
C105        F112   1.354       .  S
C106        C107   1.410       .  A
C107        C108   1.411       .  A
C107        F114   1.355       .  S
C108        C109   1.425       .  A
C108        F113   1.349       .  S
C109        C110   1.406       .  A
C110        F111   1.351       .  S
C115        C116   1.581       .  S
C115        C121   1.518       .  S
C115        C119   1.575       .  S
C115        C220   1.561       .  S
C116        H123   1.083       .  S
C116        C117   1.390       .  D
C117        C118   1.512       .  S
C117        C180   1.479       .  S
C118        C122   1.521       .  S
C118        C120   1.518       .  S
C118        H124   1.112       .  S
C119        H125   1.085       .  S
C119        C120   1.383       .  D
C120        C164   1.504       .  S
C121        H126   1.089       .  S
C121        C122   1.332       .  D
C122        C210   1.440       .  S
C127        C128   1.584       .  S
C127        C133   1.539       .  S
C127        C131   1.575       .  S
C127        C223   1.576       .  S
C128        H135   1.085       .  S
C128        C129   1.387       .  D
C129        C130   1.511       .  S
C129        C182   1.500       .  S
C130        C134   1.517       .  S
C130        C132   1.507       .  S
C130        H136   1.113   1_455  S
C131        H137   1.081       .  S
C131        C132   1.376       .  D
C132        C169   1.485       .  S
C133        H138   1.085       .  S
C133        C134   1.357       .  D
C134        C213   1.462   1_455  S
C139        C140   1.581       .  S
C139        C145   1.533       .  S
C139        C200   1.578       .  S
C140        H147   1.079       .  S
C140        C141   1.378       .  D
C141        C142   1.495       .  S
C141        C186   1.480       .  S
C142        C146   1.508       .  S
C142        H148   1.112       .  S
C143        H149   1.086       .  S
C143        C144   1.391       .  D
C144        C173   1.508       .  S
C145        H150   1.088       .  S
C145        C146   1.351       .  D
C146        C190   1.442       .  S
C151        C152   1.578       .  S
C151        C157   1.529       .  S
C151        C203   1.565       .  S
C152        H159   1.085       .  S
C152        C153   1.377       .  D
C153        C154   1.516       .  S
C153        C177   1.502       .  S
C154        C158   1.536       .  S
C154        H160   1.109       .  S
C155        H161   1.084       .  S
C155        C156   1.392       .  D
C156        C167   1.492       .  S
C157        H162   1.086       .  S
C157        C158   1.344       .  D
C158        C193   1.479       .  S
In163       O165   2.219       .  S
In163       O850   2.307       .  S
In163       O630   2.275   1_545  S
In163       O624   2.244       .  S
In163       O170   2.309       .  S
In163      O1311   2.303       .  S
In163       O172   2.258       .  S
In163       O631   2.228   1_545  S
C164        O170   1.258       .  A
C164        O172   1.266       .  A
O165        C857   1.255       .  A
O166       In847   2.356   1_455  S
O166        C173   1.259       .  A
C167        O174   1.255       .  A
C167        O168   1.262       .  A
O168       In391   2.346       .  S
C169        O171   1.262       .  A
C169        O859   1.264       .  A
O171      In1075   2.247   1_455  S
C173        O849   1.260   1_455  A
O174       In391   2.208       .  S
O175       In391   2.271       .  S
O175        C853   1.263       .  A
In176       O178   2.329   1_565  S
In176       O863   2.221   1_565  S
In176       O187   2.225   1_565  S
In176       O181   2.309   1_565  S
In176       O639   2.260       .  S
In176      O1324   2.339       .  S
In176       O641   2.328       .  S
In176       O644   2.266       .  S
C177        O183   1.264       .  A
C177        O185   1.262       .  A
O178        C870   1.262       .  A
O179       In860   2.283   1_445  S
O179        C186   1.265       .  A
C180        O187   1.259       .  A
C180        O181   1.265       .  A
C182        O184   1.266       .  A
C182        O872   1.258       .  A
O183       In404   2.245       .  S
O184      In1088   2.337   1_455  S
O185       In404   2.318       .  S
C186        O862   1.262       .  A
O188       In404   2.221       .  S
O188        C866   1.253       .  A
C189        C190   1.409       .  A
C189        C878   1.378   1_455  A
C189        F196   1.353       .  S
C190        C761   1.395   1_455  A
C191        C760   1.396       .  A
C191        C192   1.384   1_554  A
C191        F198   1.359       .  S
C192        F197   1.356       .  S
C193        C194   1.392       .  A
C194        C873   1.388       .  A
C194        F879   1.359       .  S
F195        C878   1.357       .  S
C199        C200   1.414       .  A
C199        C204   1.412       .  A
C199        F206   1.352       .  S
C201        C202   1.421       .  A
C201        F208   1.352       .  S
C202        F207   1.354       .  S
C203        C204   1.424       .  A
C204        F205   1.357       .  S
C209        C210   1.407       .  A
C209        C214   1.375       .  A
C209        F216   1.358       .  S
C210        C211   1.397       .  A
C211        C896   1.379       .  A
C211        F902   1.357       .  S
C212        C895   1.377   1_455  A
C212        C213   1.416   1_455  A
C212        F217   1.348       .  S
C213        C898   1.395       .  A
C214        C897   1.391       .  A
C214        F215   1.355       .  S
F218        C895   1.357   1_455  S
C219        C220   1.427       .  A
C219        C224   1.414       .  A
C219        F226   1.354       .  S
C220        C221   1.410       .  A
C221        C222   1.411       .  A
C221        F228   1.355       .  S
C222        C223   1.425       .  A
C222        F227   1.349       .  S
C223        C224   1.406       .  A
C224        F225   1.351       .  S
C229        C230   1.572       .  S
C229        C235   1.541       .  S
C229        C233   1.581       .  S
C229        C334   1.574       .  S
C230        H237   1.082       .  S
C230        C231   1.377       .  D
C231        C232   1.512       .  S
C231        C294   1.487       .  S
C232        C236   1.520       .  S
C232        C234   1.509       .  S
C232        H238   1.113       .  S
C233        H239   1.085       .  S
C233        C234   1.384       .  D
C234        C278   1.493       .  S
C235        H240   1.081       .  S
C235        C236   1.355       .  D
C236        C324   1.469       .  S
C241        C242   1.576       .  S
C241        C247   1.524       .  S
C241        C245   1.577       .  S
C241        C337   1.559       .  S
C242        H249   1.085       .  S
C242        C243   1.384       .  D
C243        C244   1.519       .  S
C243        C296   1.506       .  S
C244        C248   1.520       .  S
C244        C246   1.510       .  S
C244        H250   1.112       .  S
C245        H251   1.081       .  S
C245        C246   1.386       .  D
C246        C283   1.472       .  S
C247        H252   1.089       .  S
C247        C248   1.335       .  D
C248        C327   1.439       .  S
C253        C254   1.570       .  S
C253        C259   1.530       .  S
C253        C371   1.576   1_554  S
C253        C314   1.558       .  S
C254        H261   1.083       .  S
C254        C255   1.390       .  D
C255        C256   1.529       .  S
C255        C300   1.490       .  S
C256        C260   1.537       .  S
C256        C372   1.515       .  S
C256        H262   1.108       .  S
C257        C367   1.576       .  S
C257        H263   1.085       .  S
C257        C258   1.373       .  D
C258        C370   1.515       .  S
C258        C287   1.497       .  S
C259        H264   1.086       .  S
C259        C260   1.344       .  D
C260        C304   1.481       .  S
C265        C266   1.586       .  S
C265        C271   1.532   1_554  S
C265        C383   1.579   1_554  S
C265        C317   1.569       .  S
C266        H273   1.084       .  S
C266        C267   1.388       .  D
C267        C268   1.514   1_554  S
C267        C291   1.504       .  S
C268        C272   1.506       .  S
C268        C384   1.498       .  S
C268        H274   1.113       .  S
C269        C379   1.579       .  S
C269        H275   1.079       .  S
C269        C270   1.376       .  D
C270        C382   1.498       .  S
C270        C281   1.479       .  S
C271        H276   1.088       .  S
C271        C272   1.348       .  D
C272        C307   1.435       .  S
In277       O279   2.261       .  S
In277       O964   2.332       .  S
In277       O284   2.327       .  S
In277       O741   2.235       .  S
In277       O286   2.235       .  S
C278        O284   1.266       .  A
C278        O286   1.257       .  A
O279        C971   1.266       .  A
O280       In961   2.314   1_455  S
O280        C287   1.260       .  A
C281        O288   1.262       .  A
C281        O282   1.264       .  A
O282       In505   2.272       .  S
C283        O285   1.264       .  A
C283        O973   1.260       .  A
O285      In1189   2.292       .  S
C287        O963   1.261   1_455  A
O288       In505   2.267       .  S
O289       In505   2.246       .  S
O289        C967   1.260       .  A
In290       O292   2.203       .  S
In290       O977   2.301       .  S
In290       O301   2.305       .  S
In290       O295   2.239       .  S
In290       O754   2.329       .  S
C291        O297   1.259       .  A
C291        O299   1.258       .  A
O292        C984   1.255       .  A
O293       In974   2.346   1_455  S
O293        C300   1.262       .  A
C294        O301   1.263       .  A
C294        O295   1.264       .  A
C296        O298   1.258       .  A
C296        O986   1.266       .  A
O297       In518   2.222       .  S
O298      In1202   2.312   1_455  S
O299       In518   2.353       .  S
C300        O976   1.254       .  A
O302       In518   2.265       .  S
O302        C980   1.258       .  A
C303        C304   1.417       .  A
C303        C992   1.385   1_554  A
C303        F310   1.355       .  S
C304       C1103   1.392   1_455  A
C305       C1102   1.395       .  A
C305        C306   1.382       .  A
C305        F312   1.357       .  S
C306        C421   1.407       .  A
C306        F311   1.356       .  S
C307        C420   1.407   1_556  A
C307        C308   1.391       .  A
C308        C987   1.374       .  A
C308        F993   1.353       .  S
F309        C992   1.359       .  S
C313        C314   1.405       .  A
C313        C318   1.418       .  A
C313        F320   1.354       .  S
C314        C429   1.424   1_554  A
C315        C428   1.424       .  A
C315        C316   1.409       .  A
C315        F322   1.357       .  S
C316        C431   1.413       .  A
C316        F321   1.352       .  S
C317        C430   1.413   1_554  A
C317        C318   1.423       .  A
C318        F319   1.353       .  S
C323        C324   1.419       .  A
C323        C328   1.381       .  A
C323        F330   1.350       .  S
C324        C325   1.395       .  A
C325       C1010   1.385       .  A
C325       F1016   1.359       .  S
C326       C1009   1.374       .  A
C326        C327   1.405       .  A
C326        F331   1.357       .  S
C327       C1012   1.396       .  A
C328       C1011   1.389       .  A
C328        F329   1.358       .  S
F332       C1009   1.353       .  S
C333        C334   1.430       .  A
C333        C338   1.411       .  A
C333        F340   1.351       .  S
C334        C335   1.405       .  A
C335        C336   1.412       .  A
C335        F342   1.354       .  S
C336        C337   1.424       .  A
C336        F341   1.355       .  S
C337        C338   1.407       .  A
C338        F339   1.354       .  S
C343        C344   1.572       .  S
C343        C349   1.541       .  S
C343        C347   1.581       .  S
C343        C448   1.574       .  S
C344        H351   1.082       .  S
C344        C345   1.377       .  D
C345        C346   1.512       .  S
C345        C408   1.487       .  S
C346        C350   1.520       .  S
C346        C348   1.509       .  S
C346        H352   1.113       .  S
C347        H353   1.085       .  S
C347        C348   1.384       .  D
C348        C392   1.493       .  S
C349        H354   1.081       .  S
C349        C350   1.355       .  D
C350        C438   1.469       .  S
C355        C356   1.576       .  S
C355        C361   1.524       .  S
C355        C359   1.577       .  S
C355        C451   1.559       .  S
C356        H363   1.085       .  S
C356        C357   1.384       .  D
C357        C358   1.519       .  S
C357        C410   1.506       .  S
C358        C362   1.520       .  S
C358        C360   1.510       .  S
C358        H364   1.112       .  S
C359        H365   1.081       .  S
C359        C360   1.386       .  D
C360        C397   1.472       .  S
C361        H366   1.089       .  S
C361        C362   1.335       .  D
C362        C441   1.439       .  S
C367        C368   1.570       .  S
C367        C373   1.530       .  S
C367        C428   1.558       .  S
C368        H375   1.083       .  S
C368        C369   1.390       .  D
C369        C370   1.529       .  S
C369        C414   1.490       .  S
C370        C374   1.537       .  S
C370        H376   1.108       .  S
C371        H377   1.085       .  S
C371        C372   1.373   1_556  D
C372        C401   1.497   1_554  S
C373        H378   1.086       .  S
C373        C374   1.344       .  D
C374        C418   1.481       .  S
C379        C380   1.586       .  S
C379        C385   1.532       .  S
C379        C431   1.569       .  S
C380        H387   1.084       .  S
C380        C381   1.388       .  D
C381        C382   1.514       .  S
C381        C405   1.504       .  S
C382        C386   1.506       .  S
C382        H388   1.113       .  S
C383        H389   1.079       .  S
C383        C384   1.376       .  D
C384        C395   1.479       .  S
C385        H390   1.088       .  S
C385        C386   1.348       .  D
C386        C421   1.435       .  S
In391       O393   2.261       .  S
In391      O1078   2.332       .  S
In391       O398   2.327       .  S
In391       O855   2.235       .  S
In391       O400   2.235       .  S
C392        O398   1.266       .  A
C392        O400   1.257       .  A
O393       C1085   1.266       .  A
O394      In1075   2.314   1_455  S
O394        C401   1.260       .  A
C395        O402   1.262       .  A
C395        O396   1.264       .  A
O396       In619   2.272       .  S
C397        O399   1.264       .  A
C397       O1087   1.260       .  A
O399      In1303   2.292       .  S
C401       O1077   1.261   1_455  A
O402       In619   2.267       .  S
O403       In619   2.246       .  S
O403       C1081   1.260       .  A
In404       O406   2.203       .  S
In404      O1091   2.301       .  S
In404       O415   2.305       .  S
In404       O409   2.239       .  S
In404       O868   2.329       .  S
C405        O411   1.259       .  A
C405        O413   1.258       .  A
O406       C1098   1.255       .  A
O407      In1088   2.346   1_455  S
O407        C414   1.262       .  A
C408        O415   1.263       .  A
C408        O409   1.264       .  A
C410        O412   1.258       .  A
C410       O1100   1.266       .  A
O411       In632   2.222       .  S
O412      In1316   2.312   1_455  S
O413       In632   2.353       .  S
C414       O1090   1.254       .  A
O416       In632   2.265       .  S
O416       C1094   1.258       .  A
C417        C418   1.417       .  A
C417       C1106   1.385       .  A
C417        F424   1.355       .  S
C418        C989   1.392   1_455  A
C419        C988   1.395       .  A
C419        C420   1.382       .  A
C419        F426   1.357       .  S
C420        F425   1.356       .  S
C421        C422   1.391       .  A
C422       C1101   1.374       .  A
C422       F1107   1.353       .  S
F423       C1106   1.359       .  S
C427        C428   1.405       .  A
C427        C432   1.418       .  A
C427        F434   1.354       .  S
C429        C430   1.409       .  A
C429        F436   1.357       .  S
C430        F435   1.352       .  S
C431        C432   1.423       .  A
C432        F433   1.353       .  S
C437        C438   1.419       .  A
C437        C442   1.381       .  A
C437        F444   1.350       .  S
C438        C439   1.395       .  A
C439       C1124   1.385       .  A
C439       F1130   1.359       .  S
C440       C1123   1.374       .  A
C440        C441   1.405       .  A
C440        F445   1.357       .  S
C441       C1126   1.396       .  A
C442       C1125   1.389       .  A
C442        F443   1.358       .  S
F446       C1123   1.353       .  S
C447        C448   1.430       .  A
C447        C452   1.411       .  A
C447        F454   1.351       .  S
C448        C449   1.405       .  A
C449        C450   1.412       .  A
C449        F456   1.354       .  S
C450        C451   1.424       .  A
C450        F455   1.355       .  S
C451        C452   1.407       .  A
C452        F453   1.354       .  S
C457        C458   1.572       .  S
C457        C463   1.526       .  S
C457        C461   1.588       .  S
C457        C562   1.559       .  S
C458        H465   1.084       .  S
C458        C459   1.380       .  D
C459        C460   1.502       .  S
C459        C522   1.475       .  S
C460        C464   1.515       .  S
C460        C462   1.515       .  S
C460        H466   1.113       .  S
C461        H467   1.084       .  S
C461        C462   1.384       .  D
C462        C506   1.503       .  S
C463        H468   1.089       .  S
C463        C464   1.345       .  D
C464        C552   1.440       .  S
C469        C470   1.585       .  S
C469        C475   1.530       .  S
C469        C473   1.574       .  S
C469        C565   1.559       .  S
C470        H477   1.084       .  S
C470        C471   1.383       .  D
C471        C472   1.513       .  S
C471        C524   1.497       .  S
C472        C476   1.515       .  S
C472        C474   1.500       .  S
C472        H478   1.113       .  S
C473        H479   1.083       .  S
C473        C474   1.379       .  D
C474        C511   1.478       .  S
C475        H480   1.089       .  S
C475        C476   1.348       .  D
C476        C555   1.446       .  S
C481        C482   1.573   1_556  S
C481        C487   1.522   1_556  S
C481        C599   1.585       .  S
C481        C542   1.555       .  S
C482        H489   1.084       .  S
C482        C483   1.382       .  D
C483        C484   1.509   1_554  S
C483        C528   1.481       .  S
C484        C488   1.506   1_556  S
C484        C600   1.514       .  S
C484        H490   1.113       .  S
C485        C595   1.585       .  S
C485        H491   1.084       .  S
C485        C486   1.381       .  D
C486        C598   1.514       .  S
C486        C515   1.500       .  S
C487        H492   1.090       .  S
C487        C488   1.341       .  D
C488        C532   1.426   1_554  S
C493        C494   1.583       .  S
C493        C499   1.524   1_554  S
C493        C611   1.569   1_554  S
C493        C545   1.553       .  S
C494        H501   1.084       .  S
C494        C495   1.380       .  D
C495        C496   1.515       .  S
C495        C519   1.500       .  S
C496        C500   1.514   1_554  S
C496        C612   1.511   1_554  S
C496        H502   1.113       .  S
C497        C607   1.569       .  S
C497        H503   1.083       .  S
C497        C498   1.381       .  D
C498        C610   1.511       .  S
C498        C509   1.476   1_565  S
C499        H504   1.090       .  S
C499        C500   1.342       .  D
C500        C535   1.434       .  S
In505       O507   2.260       .  S
In505      O1192   2.331       .  S
In505       O512   2.349       .  S
In505       O969   2.300       .  S
In505       O514   2.233       .  S
C506        O512   1.262       .  A
C506        O514   1.257       .  A
O507       C1199   1.260       .  A
O508      In1189   2.342       .  S
O508        C515   1.256       .  A
C509        O516   1.265   1_545  A
C509        O510   1.265       .  A
C511        O513   1.262   1_565  A
C511       O1201   1.262       .  A
O513       In733   2.267   1_455  S
C515       O1191   1.259       .  A
O517       C1195   1.258       .  A
In518       O520   2.289       .  S
In518      O1205   2.304       .  S
In518       O529   2.266       .  S
In518       O523   2.268       .  S
In518       O982   2.323       .  S
C519        O525   1.261       .  A
C519        O527   1.254       .  A
O520       C1212   1.264       .  A
O521      In1202   2.242   1_455  S
O521        C528   1.265       .  A
C522        O529   1.262       .  A
C522        O523   1.263       .  A
C524        O526   1.263       .  A
C524       O1214   1.257       .  A
O526       In746   2.341   1_455  S
C528       O1204   1.265       .  A
O530       C1208   1.262       .  A
C531        C532   1.407       .  A
C531       C1220   1.376   1_455  A
C531        F538   1.358       .  S
C532       C1331   1.387   1_456  A
C533       C1330   1.394       .  A
C533        C534   1.376       .  A
C533        F540   1.358       .  S
C534        C649   1.410       .  A
C534        F539   1.358       .  S
C535        C648   1.410   1_556  A
C535        C536   1.388       .  A
C536       C1215   1.369   1_556  A
C536       F1221   1.359       .  S
F537       C1220   1.358   1_455  S
C541        C542   1.414   1_554  A
C541        C546   1.410       .  A
C541        F548   1.356       .  S
C542        C657   1.422       .  A
C543        C656   1.422       .  A
C543        C544   1.410       .  A
C543        F550   1.354       .  S
C544        C659   1.413       .  A
C544        F549   1.355       .  S
C545        C658   1.413   1_554  A
C545        C546   1.423       .  A
C546        F547   1.355       .  S
C551        C552   1.412       .  A
C551        C556   1.377       .  A
C551        F558   1.357       .  S
C552        C553   1.391       .  A
C553       C1238   1.373       .  A
C553       F1244   1.358       .  S
C554       C1237   1.381   1_455  A
C554        C555   1.413       .  A
C554        F559   1.356       .  S
C555       C1240   1.392   1_455  A
C556       C1239   1.393       .  A
C556        F557   1.358       .  S
F560       C1237   1.358   1_455  S
C561        C562   1.422       .  A
C561        C566   1.412       .  A
C561        F568   1.355       .  S
C562        C563   1.415       .  A
C563        C564   1.412       .  A
C563        F570   1.356       .  S
C564        C565   1.421       .  A
C564        F569   1.355       .  S
C565        C566   1.414       .  A
C566        F567   1.354       .  S
C571        C572   1.572       .  S
C571        C577   1.526       .  S
C571        C575   1.588       .  S
C571        C676   1.559       .  S
C572        H579   1.084       .  S
C572        C573   1.380       .  D
C573        C574   1.502       .  S
C573        C636   1.475       .  S
C574        C578   1.515       .  S
C574        C576   1.515       .  S
C574        H580   1.113       .  S
C575        H581   1.084       .  S
C575        C576   1.384       .  D
C576        C620   1.503       .  S
C577        H582   1.089       .  S
C577        C578   1.345       .  D
C578        C666   1.440       .  S
C583        C584   1.585       .  S
C583        C589   1.530       .  S
C583        C587   1.574       .  S
C583        C679   1.559       .  S
C584        H591   1.084       .  S
C584        C585   1.383       .  D
C585        C586   1.513       .  S
C585        C638   1.497       .  S
C586        C590   1.515       .  S
C586        C588   1.500       .  S
C586        H592   1.113       .  S
C587        H593   1.083       .  S
C587        C588   1.379       .  D
C588        C625   1.478       .  S
C589        H594   1.089       .  S
C589        C590   1.348       .  D
C590        C669   1.446       .  S
C595        C596   1.573       .  S
C595        C601   1.522       .  S
C595        C656   1.555       .  S
C596        H603   1.084       .  S
C596        C597   1.382       .  D
C597        C598   1.509       .  S
C597        C642   1.481       .  S
C598        C602   1.506       .  S
C598        H604   1.113       .  S
C599        H605   1.084       .  S
C599        C600   1.381       .  D
C600        C629   1.500       .  S
C601        H606   1.090       .  S
C601        C602   1.341       .  D
C602        C646   1.426       .  S
C607        C608   1.583       .  S
C607        C613   1.524       .  S
C607        C659   1.553       .  S
C608        H615   1.084       .  S
C608        C609   1.380       .  D
C609        C610   1.515       .  S
C609        C633   1.500       .  S
C610        C614   1.514       .  S
C610        H616   1.113       .  S
C611        H617   1.083       .  S
C611        C612   1.381       .  D
C612        C623   1.476   1_565  S
C613        H618   1.090       .  S
C613        C614   1.342       .  D
C614        C649   1.434       .  S
In619       O621   2.260       .  S
In619      O1306   2.331       .  S
In619       O626   2.349       .  S
In619      O1083   2.300       .  S
In619       O628   2.233       .  S
C620        O626   1.262       .  A
C620        O628   1.257       .  A
O621       C1313   1.260       .  A
O622      In1303   2.342       .  S
O622        C629   1.256       .  A
C623        O630   1.265   1_545  A
C623        O624   1.265       .  A
C625        O627   1.262   1_565  A
C625       O1315   1.262       .  A
O627       In847   2.267   1_455  S
C629       O1305   1.259       .  A
O631       C1309   1.258       .  A
In632       O634   2.289       .  S
In632      O1319   2.304       .  S
In632       O643   2.266       .  S
In632       O637   2.268       .  S
In632      O1096   2.323       .  S
C633        O639   1.261       .  A
C633        O641   1.254       .  A
O634       C1326   1.264       .  A
O635      In1316   2.242   1_455  S
O635        C642   1.265       .  A
C636        O643   1.262       .  A
C636        O637   1.263       .  A
C638        O640   1.263       .  A
C638       O1328   1.257       .  A
O640       In860   2.341   1_455  S
C642       O1318   1.265       .  A
O644       C1322   1.262       .  A
C645        C646   1.407       .  A
C645       C1334   1.376   1_455  A
C645        F652   1.358       .  S
C646       C1217   1.387   1_455  A
C647       C1216   1.394       .  A
C647        C648   1.376       .  A
C647        F654   1.358       .  S
C648        F653   1.358       .  S
C649        C650   1.388       .  A
C650       C1329   1.369       .  A
C650       F1335   1.359       .  S
F651       C1334   1.358   1_455  S
C655        C656   1.414       .  A
C655        C660   1.410       .  A
C655        F662   1.356       .  S
C657        C658   1.410       .  A
C657        F664   1.354       .  S
C658        F663   1.355       .  S
C659        C660   1.423       .  A
C660        F661   1.355       .  S
C665        C666   1.412       .  A
C665        C670   1.377       .  A
C665        F672   1.357       .  S
C666        C667   1.391       .  A
C667       C1352   1.373       .  A
C667       F1358   1.358       .  S
C668       C1351   1.381   1_455  A
C668        C669   1.413       .  A
C668        F673   1.356       .  S
C669       C1354   1.392   1_455  A
C670       C1353   1.393       .  A
C670        F671   1.358       .  S
F674       C1351   1.358   1_455  S
C675        C676   1.422       .  A
C675        C680   1.412       .  A
C675        F682   1.355       .  S
C676        C677   1.415       .  A
C677        C678   1.412       .  A
C677        F684   1.356       .  S
C678        C679   1.421       .  A
C678        F683   1.355       .  S
C679        C680   1.414       .  A
C680        F681   1.354       .  S
C685        C686   1.568       .  S
C685        C691   1.526       .  S
C685        C689   1.577       .  S
C685        C790   1.555       .  S
C686        H693   1.083       .  S
C686        C687   1.385       .  D
C687        C688   1.519       .  S
C687        C750   1.482       .  S
C688        C692   1.537       .  S
C688        C690   1.522       .  S
C688        H694   1.112       .  S
C689        H695   1.084       .  S
C689        C690   1.377       .  D
C690        C734   1.504       .  S
C691        H696   1.089       .  S
C691        C692   1.342       .  D
C692        C780   1.460       .  S
C697        C698   1.582       .  S
C697        C703   1.526       .  S
C697        C701   1.576       .  S
C697        C793   1.564       .  S
C698        H705   1.082       .  S
C698        C699   1.383       .  D
C699        C700   1.503       .  S
C699        C752   1.484       .  S
C700        C704   1.499       .  S
C700        C702   1.503       .  S
C700        H706   1.115       .  S
C701        H707   1.079       .  S
C701        C702   1.376       .  D
C702        C739   1.474       .  S
C703        H708   1.087       .  S
C703        C704   1.350       .  D
C704        C783   1.428       .  S
C709        C710   1.576       .  S
C709        C715   1.543       .  S
C709        C827   1.574   1_554  S
C709        C770   1.568       .  S
C710        H717   1.082       .  S
C710        C711   1.378       .  D
C711        C712   1.510       .  S
C711        C756   1.493       .  S
C712        C716   1.515       .  S
C712        C828   1.505   1_554  S
C712        H718   1.112       .  S
C713        C823   1.574       .  S
C713        H719   1.086       .  S
C713        C714   1.380       .  D
C714        C826   1.505       .  S
C714        C743   1.476       .  S
C715        H720   1.078       .  S
C715        C716   1.354       .  D
C716        C760   1.471       .  S
C721        C722   1.583       .  S
C721        C727   1.527       .  S
C721        C839   1.572       .  S
C721        C773   1.554       .  S
C722        H729   1.085       .  S
C722        C723   1.385       .  D
C723        C724   1.518       .  S
C723        C747   1.509       .  S
C724        C728   1.520   1_554  S
C724        C840   1.507       .  S
C724        H730   1.112       .  S
C725        C835   1.572       .  S
C725        H731   1.082       .  S
C725        C726   1.377       .  D
C726        C838   1.507       .  S
C726        C737   1.468       .  S
C727        H732   1.089   1_554  S
C727        C728   1.339   1_554  D
C728        C763   1.439       .  S
In733       O735   2.228       .  S
In733      O1200   2.279   1_545  S
In733      O1194   2.307       .  S
In733       O740   2.332       .  S
In733       O742   2.266       .  S
In733      O1201   2.275   1_645  S
C734        O740   1.262       .  A
C734        O742   1.258       .  A
O736        C743   1.264       .  A
C737        O744   1.258       .  A
C737        O738   1.262       .  A
O738       In961   2.289       .  S
C739        O741   1.266       .  A
O744       In961   2.223       .  S
O745       In961   2.302   1_455  S
In746       O748   2.262   1_665  S
In746       O757   2.252   1_565  S
In746       O751   2.287   1_565  S
In746      O1209   2.263       .  S
In746      O1211   2.331       .  S
In746      O1214   2.223   1_655  S
C747        O753   1.264       .  A
C747        O755   1.259       .  A
O749        C756   1.262       .  A
C750        O757   1.262       .  A
C750        O751   1.262       .  A
C752        O754   1.263       .  A
O753       In974   2.255       .  S
O755       In974   2.331       .  S
O758       In974   2.240   1_455  S
C759        C760   1.419   1_556  A
C759        F766   1.350       .  S
C761        C762   1.375       .  A
C761        F768   1.355       .  S
C762        C877   1.405       .  A
C762        F767   1.356       .  S
C763        C876   1.405   1_556  A
C763        C764   1.392       .  A
C769        C770   1.406       .  A
C769        C774   1.414       .  A
C769        F776   1.354       .  S
C770        C885   1.422       .  A
C771        C884   1.422       .  A
C771        C772   1.405       .  A
C771        F778   1.351       .  S
C772        C887   1.411       .  A
C772        F777   1.354       .  S
C773        C886   1.411       .  A
C773        C774   1.425       .  A
C774        F775   1.356       .  S
C779        C780   1.414       .  A
C779        C784   1.384       .  A
C779        F786   1.355       .  S
C780        C781   1.387       .  A
C782        C783   1.399       .  A
C782        F787   1.356       .  S
C784        F785   1.359       .  S
C789        C790   1.423       .  A
C789        C794   1.409       .  A
C789        F796   1.356       .  S
C790        C791   1.408       .  A
C791        C792   1.414       .  A
C791        F798   1.353       .  S
C792        C793   1.418       .  A
C792        F797   1.353       .  S
C793        C794   1.413       .  A
C794        F795   1.352       .  S
C799        C800   1.568       .  S
C799        C805   1.526       .  S
C799        C803   1.577       .  S
C799        C904   1.555       .  S
C800        H807   1.083       .  S
C800        C801   1.385       .  D
C801        C802   1.519       .  S
C801        C864   1.482       .  S
C802        C806   1.537       .  S
C802        C804   1.522       .  S
C802        H808   1.112       .  S
C803        H809   1.084       .  S
C803        C804   1.377       .  D
C804        C848   1.504       .  S
C805        H810   1.089       .  S
C805        C806   1.342       .  D
C806        C894   1.460       .  S
C811        C812   1.582       .  S
C811        C817   1.526       .  S
C811        C815   1.576       .  S
C811        C907   1.564       .  S
C812        H819   1.082       .  S
C812        C813   1.383       .  D
C813        C814   1.503       .  S
C813        C866   1.484       .  S
C814        C818   1.499       .  S
C814        C816   1.503       .  S
C814        H820   1.115       .  S
C815        H821   1.079       .  S
C815        C816   1.376       .  D
C816        C853   1.474       .  S
C817        H822   1.087       .  S
C817        C818   1.350       .  D
C818        C897   1.428       .  S
C823        C824   1.576       .  S
C823        C829   1.543       .  S
C823        C884   1.568       .  S
C824        H831   1.082       .  S
C824        C825   1.378       .  D
C825        C826   1.510       .  S
C825        C870   1.493       .  S
C826        C830   1.515       .  S
C826        H832   1.112       .  S
C827        H833   1.086       .  S
C827        C828   1.380       .  D
C828        C857   1.476       .  S
C829        H834   1.078       .  S
C829        C830   1.354       .  D
C830        C874   1.471       .  S
C835        C836   1.583       .  S
C835        C841   1.527       .  S
C835        C887   1.554       .  S
C836        H843   1.085       .  S
C836        C837   1.385       .  D
C837        C838   1.518       .  S
C837        C861   1.509       .  S
C838        C842   1.520       .  S
C838        H844   1.112       .  S
C839        H845   1.082       .  S
C839        C840   1.378       .  D
C840        C851   1.468   1_554  S
C841        H846   1.089       .  S
C841        C842   1.339       .  D
C842        C877   1.439       .  S
In847       O849   2.228       .  S
In847      O1314   2.279   1_545  S
In847      O1308   2.307       .  S
In847       O854   2.332       .  S
In847       O856   2.266       .  S
In847      O1315   2.275   1_645  S
C848        O854   1.262       .  A
C848        O856   1.258       .  A
O850        C857   1.264       .  A
C851        O858   1.258       .  A
C851        O852   1.262       .  A
O852      In1075   2.289       .  S
C853        O855   1.266       .  A
O858      In1075   2.223       .  S
O859      In1075   2.302   1_455  S
In860       O862   2.262   1_665  S
In860       O871   2.252   1_565  S
In860       O865   2.287   1_565  S
In860      O1323   2.263       .  S
In860      O1325   2.331       .  S
In860      O1328   2.223   1_655  S
C861        O867   1.264       .  A
C861        O869   1.259       .  A
O863        C870   1.262       .  A
C864        O871   1.262       .  A
C864        O865   1.262       .  A
C866        O868   1.263       .  A
O867      In1088   2.255       .  S
O869      In1088   2.331       .  S
O872      In1088   2.240   1_455  S
C873        C874   1.419       .  A
C873        F880   1.350       .  S
C875        C876   1.375       .  A
C875        F882   1.355       .  S
C876        F881   1.356       .  S
C877        C878   1.392       .  A
C883        C884   1.406       .  A
C883        C888   1.414       .  A
C883        F890   1.354       .  S
C885        C886   1.405       .  A
C885        F892   1.351   1_554  S
C886        F891   1.354       .  S
C887        C888   1.425       .  A
C888        F889   1.356       .  S
C893        C894   1.414       .  A
C893        C898   1.384       .  A
C893        F900   1.355       .  S
C894        C895   1.387       .  A
C896        C897   1.399       .  A
C896        F901   1.356       .  S
C898        F899   1.359       .  S
C903        C904   1.423       .  A
C903        C908   1.409       .  A
C903        F910   1.356       .  S
C904        C905   1.408       .  A
C905        C906   1.414       .  A
C905        F912   1.353       .  S
C906        C907   1.418       .  A
C906        F911   1.353       .  S
C907        C908   1.413       .  A
C908        F909   1.352       .  S
C913        C914   1.578       .  S
C913        C919   1.528       .  S
C913        C917   1.582       .  S
C913       C1018   1.565       .  S
C914        H921   1.079       .  S
C914        C915   1.377       .  D
C915        C916   1.500       .  S
C915        C978   1.474       .  S
C916        C920   1.502       .  S
C916        C918   1.507       .  S
C916        H922   1.114       .  S
C917        H923   1.080       .  S
C917        C918   1.384       .  D
C918        C962   1.492       .  S
C919        H924   1.087       .  S
C919        C920   1.348       .  D
C920       C1008   1.430       .  S
C925        C926   1.574       .  S
C925        C931   1.528       .  S
C925        C929   1.568       .  S
C925       C1021   1.556       .  S
C926        H933   1.085       .  S
C926        C927   1.374       .  D
C927        C928   1.521       .  S
C927        C980   1.500       .  S
C928        C932   1.540       .  S
C928        C930   1.523       .  S
C928        H934   1.111       .  S
C929        H935   1.083       .  S
C929        C930   1.386       .  D
C930        C967   1.484       .  S
C931        H936   1.087       .  S
C931        C932   1.345       .  D
C932       C1011   1.472       .  S
C937        C938   1.575       .  S
C937        C943   1.528       .  S
C937       C1055   1.585       .  S
C937        C998   1.561       .  S
C938        H945   1.081       .  S
C938        C939   1.379       .  D
C939        C940   1.505       .  S
C939        C984   1.466   1_556  S
C940        C944   1.518       .  S
C940       C1056   1.514       .  S
C940        H946   1.113       .  S
C941       C1051   1.585       .  S
C941        H947   1.085       .  S
C941        C942   1.389       .  D
C942       C1054   1.514       .  S
C942        C971   1.511       .  S
C943        H948   1.089       .  S
C943        C944   1.338       .  D
C944        C988   1.438   1_556  S
C949        C950   1.577       .  S
C949        C955   1.544       .  S
C949       C1067   1.573       .  S
C949       C1001   1.574       .  S
C950        H957   1.085   1_556  S
C950        C951   1.383       .  D
C951        C952   1.506       .  S
C951        C975   1.485   1_556  S
C952        C956   1.515       .  S
C952       C1068   1.513       .  S
C952        H958   1.112       .  S
C953       C1063   1.573       .  S
C953        H959   1.082       .  S
C953        C954   1.378       .  D
C954       C1066   1.513       .  S
C954        C965   1.490       .  S
C955        H960   1.077       .  S
C955        C956   1.355       .  D
C956        C991   1.473       .  S
In961       O963   2.243       .  S
In961       O968   2.339       .  S
In961       O970   2.211       .  S
C962        O968   1.260       .  A
C962        O970   1.254       .  A
O964        C971   1.256       .  A
C965        O972   1.263       .  A
C965        O966   1.260       .  A
O966      In1189   2.214   1_655  S
C967        O969   1.262       .  A
O972      In1189   2.330   1_655  S
O973      In1189   2.228       .  S
In974       O976   2.197   1_655  S
In974       O985   2.270       .  S
In974       O979   2.246       .  S
C975        O981   1.255       .  A
C975        O983   1.265       .  A
O977        C984   1.263       .  A
C978        O985   1.262       .  A
C978        O979   1.267       .  A
C980        O982   1.261       .  A
O981      In1202   2.235       .  S
O983      In1202   2.316       .  S
O986      In1202   2.265   1_455  S
C987        C988   1.404   1_556  A
C987        F994   1.356       .  S
C989        C990   1.387       .  A
C989        F996   1.359       .  S
C990       C1105   1.419       .  A
C990        F995   1.351       .  S
C991       C1104   1.419   1_556  A
C991        C992   1.397   1_655  A
C997        C998   1.411       .  A
C997       C1002   1.409       .  A
C997       F1004   1.353       .  S
C998       C1113   1.424       .  A
C999       C1112   1.424       .  A
C999       C1000   1.417       .  A
C999       F1006   1.355       .  S
C1000      C1115   1.407       .  A
C1000      F1005   1.354       .  S
C1001      C1114   1.407       .  A
C1001      C1002   1.425       .  A
C1002      F1003   1.352       .  S
C1007      C1008   1.401       .  A
C1007      C1012   1.381   1_655  A
C1007      F1014   1.356       .  S
C1008      C1009   1.390   1_655  A
C1010      C1011   1.416       .  A
C1010      F1015   1.355       .  S
C1012      F1013   1.357       .  S
C1017      C1018   1.421       .  A
C1017      C1022   1.416       .  A
C1017      F1024   1.354       .  S
C1018      C1019   1.412       .  A
C1019      C1020   1.407       .  A
C1019      F1026   1.352       .  S
C1020      C1021   1.423       .  A
C1020      F1025   1.357       .  S
C1021      C1022   1.405       .  A
C1022      F1023   1.353       .  S
C1027      C1028   1.578       .  S
C1027      C1033   1.528       .  S
C1027      C1031   1.582       .  S
C1027      C1132   1.565       .  S
C1028      H1035   1.079       .  S
C1028      C1029   1.377       .  D
C1029      C1030   1.500       .  S
C1029      C1092   1.474       .  S
C1030      C1034   1.502       .  S
C1030      C1032   1.507       .  S
C1030      H1036   1.114       .  S
C1031      H1037   1.080       .  S
C1031      C1032   1.384       .  D
C1032      C1076   1.492       .  S
C1033      H1038   1.087       .  S
C1033      C1034   1.348       .  D
C1034      C1122   1.430       .  S
C1039      C1040   1.574       .  S
C1039      C1045   1.528       .  S
C1039      C1043   1.568       .  S
C1039      C1135   1.556       .  S
C1040      H1047   1.085       .  S
C1040      C1041   1.374       .  D
C1041      C1042   1.521       .  S
C1041      C1094   1.500       .  S
C1042      C1046   1.540       .  S
C1042      C1044   1.523       .  S
C1042      H1048   1.111       .  S
C1043      H1049   1.083       .  S
C1043      C1044   1.386       .  D
C1044      C1081   1.484       .  S
C1045      H1050   1.087       .  S
C1045      C1046   1.345       .  D
C1046      C1125   1.472       .  S
C1051      C1052   1.575       .  S
C1051      C1057   1.528       .  S
C1051      C1112   1.561       .  S
C1052      H1059   1.081       .  S
C1052      C1053   1.379       .  D
C1053      C1054   1.505       .  S
C1053      C1098   1.466       .  S
C1054      C1058   1.518       .  S
C1054      H1060   1.113       .  S
C1055      H1061   1.085       .  S
C1055      C1056   1.389       .  D
C1056      C1085   1.511       .  S
C1057      H1062   1.089       .  S
C1057      C1058   1.338       .  D
C1058      C1102   1.438       .  S
C1063      C1064   1.577       .  S
C1063      C1069   1.544       .  S
C1063      C1115   1.574       .  S
C1064      H1071   1.085       .  S
C1064      C1065   1.383       .  D
C1065      C1066   1.506       .  S
C1065      C1089   1.485       .  S
C1066      C1070   1.515       .  S
C1066      H1072   1.112       .  S
C1067      H1073   1.082       .  S
C1067      C1068   1.378       .  D
C1068      C1079   1.490       .  S
C1069      H1074   1.077       .  S
C1069      C1070   1.355       .  D
C1070      C1105   1.473       .  S
In1075     O1077   2.243       .  S
In1075     O1082   2.339       .  S
In1075     O1084   2.211       .  S
C1076      O1082   1.260       .  A
C1076      O1084   1.254       .  A
O1078      C1085   1.256       .  A
C1079      O1086   1.263       .  A
C1079      O1080   1.260       .  A
O1080     In1303   2.214   1_655  S
C1081      O1083   1.262       .  A
O1086     In1303   2.330   1_655  S
O1087     In1303   2.228       .  S
In1088     O1090   2.197   1_655  S
In1088     O1099   2.270       .  S
In1088     O1093   2.246       .  S
C1089      O1095   1.255       .  A
C1089      O1097   1.265       .  A
O1091      C1098   1.263       .  A
C1092      O1099   1.262       .  A
C1092      O1093   1.267       .  A
C1094      O1096   1.261       .  A
O1095     In1316   2.235       .  S
O1097     In1316   2.316       .  S
O1100     In1316   2.265   1_455  S
C1101      C1102   1.404       .  A
C1101      F1108   1.356       .  S
C1103      C1104   1.387       .  A
C1103      F1110   1.359       .  S
C1104      F1109   1.351       .  S
C1105      C1106   1.397   1_655  A
C1111      C1112   1.411       .  A
C1111      C1116   1.409       .  A
C1111      F1118   1.353       .  S
C1113      C1114   1.417       .  A
C1113      F1120   1.355       .  S
C1114      F1119   1.354       .  S
C1115      C1116   1.425       .  A
C1116      F1117   1.352       .  S
C1121      C1122   1.401       .  A
C1121      C1126   1.381   1_655  A
C1121      F1128   1.356       .  S
C1122      C1123   1.390   1_655  A
C1124      C1125   1.416       .  A
C1124      F1129   1.355       .  S
C1126      F1127   1.357       .  S
C1131      C1132   1.421       .  A
C1131      C1136   1.416       .  A
C1131      F1138   1.354       .  S
C1132      C1133   1.412       .  A
C1133      C1134   1.407       .  A
C1133      F1140   1.352       .  S
C1134      C1135   1.423       .  A
C1134      F1139   1.357       .  S
C1135      C1136   1.405       .  A
C1136      F1137   1.353       .  S
C1141      C1142   1.572       .  S
C1141      C1147   1.526       .  S
C1141      C1145   1.583       .  S
C1141      C1246   1.565       .  S
C1142      H1149   1.084       .  S
C1142      C1143   1.390       .  D
C1143      C1144   1.516       .  S
C1143      C1206   1.481       .  S
C1144      C1148   1.527       .  S
C1144      C1146   1.516       .  S
C1144      H1150   1.111       .  S
C1145      H1151   1.084       .  S
C1145      C1146   1.380       .  D
C1146      C1190   1.505       .  S
C1147      H1152   1.090       .  S
C1147      C1148   1.341       .  D
C1148      C1236   1.455       .  S
C1153      C1154   1.588       .  S
C1153      C1159   1.525       .  S
C1153      C1157   1.572       .  S
C1153      C1249   1.565       .  S
C1154      H1161   1.084       .  S
C1154      C1155   1.384       .  D
C1155      C1156   1.515       .  S
C1155      C1208   1.510       .  S
C1156      C1160   1.523       .  S
C1156      C1158   1.510       .  S
C1156      H1162   1.112       .  S
C1157      H1163   1.084       .  S
C1157      C1158   1.387       .  D
C1158      C1195   1.476       .  S
C1159      H1164   1.090       .  S
C1159      C1160   1.341       .  D
C1160      C1239   1.447       .  S
C1165      C1166   1.581       .  S
C1165      C1171   1.523       .  S
C1165      C1283   1.582   1_554  S
C1165      C1226   1.578       .  S
C1166      H1173   1.085       .  S
C1166      C1167   1.396       .  D
C1167      C1168   1.514       .  S
C1167      C1212   1.497       .  S
C1168      C1172   1.524       .  S
C1168      C1284   1.518   1_554  S
C1168      H1174   1.112       .  S
C1169      C1279   1.582       .  S
C1169      H1175   1.083       .  S
C1169      C1170   1.378       .  D
C1170      C1282   1.518       .  S
C1170      C1199   1.506       .  S
C1171      H1176   1.090       .  S
C1171      C1172   1.345       .  D
C1172      C1216   1.447       .  S
C1177      C1178   1.584   1_556  S
C1177      C1183   1.520       .  S
C1177      C1295   1.581       .  S
C1177      C1229   1.577   1_556  S
C1178      H1185   1.084       .  S
C1178      C1179   1.380       .  D
C1179      C1180   1.518   1_554  S
C1179      C1203   1.507       .  S
C1180      C1184   1.522       .  S
C1180      C1296   1.514       .  S
C1180      H1186   1.112       .  S
C1181      C1291   1.581       .  S
C1181      H1187   1.084       .  S
C1181      C1182   1.395       .  D
C1182      C1294   1.514       .  S
C1182      C1193   1.495   1_565  S
C1183      H1188   1.090       .  S
C1183      C1184   1.343       .  D
C1184      C1219   1.442       .  S
In1189     O1191   2.239       .  S
In1189     O1196   2.327   1_455  S
In1189     O1198   2.271   1_455  S
C1190      O1196   1.256       .  A
C1190      O1198   1.262       .  A
O1192      C1199   1.261       .  A
C1193      O1200   1.265   1_545  A
C1193      O1194   1.265       .  A
C1195      O1197   1.264   1_565  A
In1202     O1204   2.288   1_655  S
In1202     O1213   2.223       .  S
In1202     O1207   2.318       .  S
C1203      O1209   1.261       .  A
C1203      O1211   1.261       .  A
O1205      C1212   1.263       .  A
C1206      O1213   1.257       .  A
C1206      O1207   1.263       .  A
C1208      O1210   1.257       .  A
C1215      C1216   1.416       .  A
C1215      F1222   1.356   1_554  S
C1217      C1218   1.369       .  A
C1217      F1224   1.359       .  S
C1218      C1333   1.415       .  A
C1218      F1223   1.358       .  S
C1219      C1332   1.415   1_556  A
C1219      C1220   1.394       .  A
C1225      C1226   1.411       .  A
C1225      C1230   1.421       .  A
C1225      F1232   1.353       .  S
C1226      C1341   1.431   1_554  A
C1227      C1340   1.431       .  A
C1227      C1228   1.419       .  A
C1227      F1234   1.355       .  S
C1228      C1343   1.414       .  A
C1228      F1233   1.356       .  S
C1229      C1342   1.414   1_554  A
C1229      C1230   1.431       .  A
C1230      F1231   1.355       .  S
C1235      C1236   1.414       .  A
C1235      C1240   1.374       .  A
C1235      F1242   1.357       .  S
C1236      C1237   1.394       .  A
C1238      C1239   1.413       .  A
C1238      F1243   1.356       .  S
C1240      F1241   1.359       .  S
C1245      C1246   1.427       .  A
C1245      C1250   1.416       .  A
C1245      F1252   1.356       .  S
C1246      C1247   1.411       .  A
C1247      C1248   1.416       .  A
C1247      F1254   1.354       .  S
C1248      C1249   1.426       .  A
C1248      F1253   1.355       .  S
C1249      C1250   1.415       .  A
C1250      F1251   1.356       .  S
C1255      C1256   1.572       .  S
C1255      C1261   1.526       .  S
C1255      C1259   1.583       .  S
C1255      C1360   1.565       .  S
C1256      H1263   1.084       .  S
C1256      C1257   1.390       .  D
C1257      C1258   1.516       .  S
C1257      C1320   1.481       .  S
C1258      C1262   1.527       .  S
C1258      C1260   1.516       .  S
C1258      H1264   1.111       .  S
C1259      H1265   1.084       .  S
C1259      C1260   1.380       .  D
C1260      C1304   1.505       .  S
C1261      H1266   1.090       .  S
C1261      C1262   1.341       .  D
C1262      C1350   1.455       .  S
C1267      C1268   1.588       .  S
C1267      C1273   1.525       .  S
C1267      C1271   1.572       .  S
C1267      C1363   1.565       .  S
C1268      H1275   1.084       .  S
C1268      C1269   1.384       .  D
C1269      C1270   1.515       .  S
C1269      C1322   1.510       .  S
C1270      C1274   1.523       .  S
C1270      C1272   1.510       .  S
C1270      H1276   1.112       .  S
C1271      H1277   1.084       .  S
C1271      C1272   1.387       .  D
C1272      C1309   1.476       .  S
C1273      H1278   1.090       .  S
C1273      C1274   1.341       .  D
C1274      C1353   1.447       .  S
C1279      C1280   1.581       .  S
C1279      C1285   1.523       .  S
C1279      C1340   1.578       .  S
C1280      H1287   1.085       .  S
C1280      C1281   1.396       .  D
C1281      C1282   1.514       .  S
C1281      C1326   1.497       .  S
C1282      C1286   1.524       .  S
C1282      H1288   1.112       .  S
C1283      H1289   1.083       .  S
C1283      C1284   1.378       .  D
C1284      C1313   1.506       .  S
C1285      H1290   1.090       .  S
C1285      C1286   1.345       .  D
C1286      C1330   1.447       .  S
C1291      C1292   1.584       .  S
C1291      C1297   1.520       .  S
C1291      C1343   1.577       .  S
C1292      H1299   1.084       .  S
C1292      C1293   1.380       .  D
C1293      C1294   1.518       .  S
C1293      C1317   1.507       .  S
C1294      C1298   1.522       .  S
C1294      H1300   1.112       .  S
C1295      H1301   1.084       .  S
C1295      C1296   1.395       .  D
C1296      C1307   1.495   1_565  S
C1297      H1302   1.090       .  S
C1297      C1298   1.343       .  D
C1298      C1333   1.442       .  S
In1303     O1305   2.239       .  S
In1303     O1310   2.327   1_455  S
In1303     O1312   2.271   1_455  S
C1304      O1310   1.256       .  A
C1304      O1312   1.262       .  A
O1306      C1313   1.261       .  A
C1307      O1314   1.265   1_545  A
C1307      O1308   1.265       .  A
C1309      O1311   1.264   1_565  A
In1316     O1318   2.288   1_655  S
In1316     O1327   2.223       .  S
In1316     O1321   2.318       .  S
C1317      O1323   1.261       .  A
C1317      O1325   1.261       .  A
O1319      C1326   1.263       .  A
C1320      O1327   1.257       .  A
C1320      O1321   1.263       .  A
C1322      O1324   1.257       .  A
C1329      C1330   1.416       .  A
C1329      F1336   1.356       .  S
C1331      C1332   1.369       .  A
C1331      F1338   1.359       .  S
C1332      F1337   1.358       .  S
C1333      C1334   1.394       .  A
C1339      C1340   1.411       .  A
C1339      C1344   1.421       .  A
C1339      F1346   1.353       .  S
C1341      C1342   1.419       .  A
C1341      F1348   1.355       .  S
C1342      F1347   1.356       .  S
C1343      C1344   1.431       .  A
C1344      F1345   1.355       .  S
C1349      C1350   1.414       .  A
C1349      C1354   1.374       .  A
C1349      F1356   1.357       .  S
C1350      C1351   1.394       .  A
C1352      C1353   1.413       .  A
C1352      F1357   1.356       .  S
C1354      F1355   1.359       .  S
C1359      C1360   1.427       .  A
C1359      C1364   1.416       .  A
C1359      F1366   1.356       .  S
C1360      C1361   1.411       .  A
C1361      C1362   1.416       .  A
C1361      F1368   1.354       .  S
C1362      C1363   1.426       .  A
C1362      F1367   1.355       .  S
C1363      C1364   1.415       .  A
C1364      F1365   1.356       .  S
