geometry optimzed in LAMMPS
_audit_creation_date              2020-11-30 
_audit_creation_method            'lammps2cif' 
_symmetry_space_group_name_H-M    'P1' 
_symmetry_Int_Tables_number       1 
_symmetry_cell_setting            triclinic 
loop_ 
_symmetry_equiv_pos_as_xyz 
  x,y,z 
_cell_length_a                    30.34513636 
_cell_length_b                    30.724630363432464 
_cell_length_c                    28.665278978333472 
_cell_angle_alpha                 90.72899068283954 
_cell_angle_beta                  89.73746553875179 
_cell_angle_gamma                 121.206045659955 
loop_ 
_atom_site_label 
_atom_site_type_symbol 
_atom_site_fract_x 
_atom_site_fract_y 
_atom_site_fract_z 
_atom_site_charge 
In1        In  0.79604065  0.60188822  0.50355422     1.36900
C2          C  0.89802244  0.66681340  0.50446914     0.77800
O3          O  0.79709784  0.53371365  0.47682544    -0.60600
O4          O  0.77859093  0.57377116  0.42859730    -0.51500
C5          C  0.74798567  0.53206520  0.56926334     0.70500
O6          O  0.79566431  0.56424656  0.57055550    -0.46400
C7          C  0.74879025  0.65506886  0.50309671     0.75200
O8          O  0.87174690  0.65151508  0.54123124    -0.58200
O9          O  0.74449976  0.62533687  0.47049373    -0.48300
O10         O  0.87201546  0.65121215  0.46741602    -0.54700
C11         C  0.78365315  0.53614835  0.43589874     0.85400
O12         O  0.72441314  0.53718981  0.53571596    -0.56600
O13         O  0.77821386  0.65876291  0.53569470    -0.59900
In14       In  0.79218785  0.98412360  0.49677278     1.36900
C15         C  0.89510241  0.03126800  0.49394412     0.77800
O16         O  0.79100334  0.01442062  0.56905666    -0.60600
O17         O  0.72283648  0.98126121  0.52822424    -0.51500
C18         C  0.76902135  0.03001737  0.43105411     0.70500
O19         O  0.75854736  0.98471653  0.42648182    -0.46400
C20         C  0.75031378  0.88272186  0.49880102     0.75200
O21         O  0.86771864  0.01413935  0.45781027    -0.58200
O22         O  0.76810996  0.91077232  0.53442600    -0.48300
O23         O  0.87002155  0.02200171  0.53119246    -0.54700
C24         C  0.74495149  0.00352320  0.56579942     0.85400
O25         O  0.79300167  0.05211717  0.46802549    -0.56600
O26         O  0.75593481  0.90645386  0.46170591    -0.59900
In27       In  0.66330964  0.72519897  0.50496466     1.36900
C28         C  0.72254736  0.82689326  0.50084107     0.77800
O29         O  0.63073901  0.72307109  0.57664455    -0.60600
O30         O  0.59420943  0.65616664  0.53471350    -0.51500
C31         C  0.59527114  0.70593564  0.43851844     0.70500
O32         O  0.59293715  0.72248925  0.47839305    -0.46400
C33         C  0.72031689  0.68171394  0.50341790     0.75200
O34         O  0.70699284  0.79879840  0.46503673    -0.58200
O35         O  0.72366423  0.71134278  0.53576040    -0.48300
O36         O  0.70999407  0.80312250  0.53867570    -0.54700
C37         C  0.59385600  0.67777040  0.57215310     0.85400
O38         O  0.63400074  0.70163931  0.43171065    -0.56600
O39         O  0.68923044  0.67554323  0.47161818    -0.59900
C40         C  0.59592210  0.19420714  0.83098886     0.86700
C41         C  0.62249484  0.24606952  0.80665934    -0.53500
C42         C  0.61906983  0.24270410  0.75913342     0.09700
C43         C  0.59039592  0.18756866  0.74018258     0.20600
C44         C  0.54046065  0.16624547  0.81188195    -0.54200
C45         C  0.53771107  0.16225172  0.76442297     0.09800
C46         C  0.62094380  0.16613119  0.80952631    -0.53800
C47         C  0.61811942  0.16241061  0.76194938     0.10300
H48         H  0.64045446  0.28238160  0.82495283     0.14900
H49         H  0.58800538  0.18509946  0.70151921     0.00600
H50         H  0.50648474  0.14982359  0.83392349     0.15200
H51         H  0.63824314  0.14959525  0.83041260     0.15000
C52         C  0.60039088  0.19725526  0.16452340     0.86700
C53         C  0.54653373  0.17338990  0.18655579    -0.53500
C54         C  0.54712172  0.17468833  0.23424724     0.09700
C55         C  0.60156058  0.19908709  0.25547210     0.20600
C56         C  0.63104423  0.25129969  0.18639714    -0.54200
C57         C  0.63208184  0.25217078  0.23393924     0.09800
C58         C  0.62408261  0.16830538  0.18615043    -0.53800
C59         C  0.62505080  0.16947790  0.23389567     0.10300
H60         H  0.51135983  0.15813258  0.16621573     0.14900
H61         H  0.60131117  0.19938179  0.29410220     0.00600
H62         H  0.65096901  0.28613219  0.16678095     0.15200
H63         H  0.63986116  0.14977448  0.16538926     0.15000
In64       In  0.05743533  0.74229128  0.50240674     1.36900
C65         C  0.09833354  0.84294492  0.50074936     0.77800
O66         O  0.12845500  0.75250184  0.46648761    -0.60600
O67         O  0.05547060  0.70273853  0.43538560    -0.51500
C68         C  0.08407101  0.69833957  0.56645136     0.70500
O69         O  0.09102523  0.74220433  0.57273485    -0.46400
C70         C  0.95456766  0.69715199  0.50446074     0.75200
O71         O  0.09207019  0.81907036  0.53793779    -0.58200
O72         O  0.98032957  0.71154493  0.46744735    -0.48300
O73         O  0.08194391  0.81532864  0.46470267    -0.54700
C74         C  0.10355537  0.72162991  0.43374815     0.85400
O75         O  0.06142842  0.67658100  0.52899518    -0.56600
O76         O  0.98133095  0.70808015  0.54095823    -0.59900
In77       In  0.18430626  0.00000674  0.49640235     1.36900
C78         C  0.12538738  0.89860817  0.49924405     0.77800
O79         O  0.24618067  0.99489343  0.53269062    -0.60600
O80         O  0.22119182  0.04205012  0.56322800    -0.51500
C81         C  0.25603709  0.04327673  0.43042758     0.70500
O82         O  0.21741224  0.99880903  0.42590874    -0.46400
C83         C  0.12524448  0.04094577  0.49411885     0.75200
O84         O  0.13499750  0.92291673  0.46181347    -0.58200
O85         O  0.13090982  0.02176463  0.53043185    -0.48300
O86         O  0.14339668  0.92603365  0.53520622    -0.54700
C87         C  0.25120641  0.02512880  0.56525800     0.85400
O88         O  0.25698706  0.06579762  0.46776547    -0.56600
O89         O  0.14758977  0.03707552  0.45873782    -0.59900
In90       In  0.05376816  0.12462728  0.49398673     1.36900
C91         C  0.95151933  0.06199559  0.49319140     0.77800
O92         O  0.05440842  0.15685997  0.42335431    -0.60600
O93         O  0.11808390  0.19998031  0.46868172    -0.51500
C94         C  0.07539709  0.18894134  0.56464225     0.70500
O95         O  0.09484938  0.16137538  0.56094280    -0.46400
C96         C  0.09742330  0.06815220  0.49345002     0.75200
O97         O  0.97777238  0.07748425  0.53002771    -0.58200
O98         O  0.09550282  0.09072695  0.45794030    -0.48300
O99         O  0.97749864  0.07713182  0.45623655    -0.54700
C100        C  0.09667617  0.19780664  0.43048639     0.85400
O101        O  0.04363361  0.18237580  0.53305063    -0.56600
O102        O  0.07561159  0.07290822  0.52881186    -0.59900
C103        C  0.24821680  0.52915872  0.83317091     0.86700
C104        C  0.21756272  0.47439412  0.81373370    -0.53500
C105        C  0.21495934  0.47169328  0.76628774     0.09700
C106        C  0.24402525  0.52336743  0.74233446     0.20600
C107        C  0.30134125  0.55251032  0.80952878    -0.54200
C108        C  0.29909707  0.54918399  0.76197902     0.09800
C109        C  0.22338947  0.55670780  0.81103080    -0.53800
C110        C  0.22121614  0.55363663  0.76336786     0.10300
H111        H  0.19870224  0.44087685  0.83550886     0.14900
H112        H  0.24236705  0.52065184  0.70369253     0.00600
H113        H  0.33754440  0.56860595  0.82808255     0.15200
H114        H  0.20846921  0.57633115  0.83134133     0.15000
C115        C  0.25596902  0.53621516  0.16629569     0.86700
C116        C  0.30994866  0.56431485  0.18947508    -0.53500
C117        C  0.30870369  0.56676081  0.23699235     0.09700
C118        C  0.25413262  0.54091251  0.25699213     0.20600
C119        C  0.22784716  0.48377781  0.18951040    -0.54200
C120        C  0.22727435  0.48614261  0.23720801     0.09800
C121        C  0.22908340  0.56364591  0.18515626    -0.53800
C122        C  0.22888960  0.56676366  0.23264076     0.10300
H123        H  0.34597757  0.58118623  0.17061258     0.14900
H124        H  0.25253870  0.54282045  0.29553535     0.00600
H125        H  0.21178043  0.44827833  0.16992684     0.15200
H126        H  0.21389247  0.58120430  0.16289401     0.15000
C127        C  0.27551370  0.54610803  0.95722139     0.20600
C128        C  0.30646780  0.56270822  0.99726854    -0.39300
C129        C  0.28025314  0.54730052  0.03976824     0.19600
C130        C  0.22718730  0.51774495  0.04245578     0.22200
C131        C  0.19598145  0.50111559  0.00220647    -0.39800
C132        C  0.22237108  0.51659094  0.95944392     0.21000
N133        N  0.29166600  0.55522821  0.91285872    -0.33100
C134        C  0.24857184  0.53116792  0.88602743    -0.10600
C135        C  0.20447580  0.50706392  0.91403013    -0.29400
N136        N  0.21203717  0.50930993  0.08733170    -0.46000
C137        C  0.25581930  0.53370829  0.11340036    -0.05300
C138        C  0.29913738  0.55770577  0.08454923    -0.22700
H139        H  0.34805409  0.58594836  0.99545145     0.19100
H140        H  0.15439335  0.47798989  0.00403835     0.17900
H141        H  0.16479204  0.48466768  0.90253272     0.14200
H142        H  0.33926102  0.58089490  0.09423042     0.14100
H143        H  0.32999061  0.57669980  0.90233021     0.32200
H144        H  0.17420937  0.48886551  0.09962101     0.35000
C145        C  0.16227675  0.31799003  0.37384362     0.20600
C146        C  0.19535888  0.37087051  0.37069438    -0.39300
C147        C  0.19522255  0.39217432  0.32776395     0.19600
C148        C  0.16475724  0.36307623  0.29065173     0.22200
C149        C  0.13114749  0.31016832  0.29399483    -0.39800
C150        C  0.13100195  0.28882260  0.33710315     0.21000
N151        N  0.15504886  0.28886860  0.41102334    -0.33100
C152        C  0.11851424  0.24084682  0.39816819    -0.10600
C153        C  0.10240784  0.23921917  0.35232206    -0.29400
N154        N  0.17217026  0.39251781  0.25354817    -0.46000
C155        C  0.20718993  0.44082996  0.26735115    -0.05300
C156        C  0.22247820  0.44196890  0.31344766    -0.22700
H157        H  0.21933558  0.39377575  0.39960967     0.19100
H158        H  0.10680380  0.28735083  0.26522971     0.17900
H159        H  0.07329154  0.20637258  0.33303112     0.14200
H160        H  0.25038671  0.47462914  0.33371278     0.14100
H161        H  0.17285307  0.30111501  0.44362034     0.32200
H162        H  0.15401153  0.38046108  0.22110005     0.35000
C163        C  0.10340626  0.29520991  0.63684359     0.20600
C164        C  0.10613705  0.34099700  0.64829240    -0.39300
C165        C  0.13790257  0.36799451  0.68624303     0.19600
C166        C  0.16434283  0.35041295  0.71138453     0.22200
C167        C  0.16218040  0.30493180  0.69950460    -0.39800
C168        C  0.13085378  0.27817832  0.66114864     0.21000
N169        N  0.07824487  0.26411232  0.60064915    -0.33100
C170        C  0.09034186  0.22746697  0.60153013    -0.10600
C171        C  0.12295469  0.23477720  0.63876446    -0.29400
N172        N  0.19338505  0.38412755  0.74479054    -0.46000
C173        C  0.18605763  0.42370433  0.74003562    -0.05300
C174        C  0.15172698  0.41510443  0.70407634    -0.22700
H175        H  0.08617611  0.35525476  0.62829784     0.19100
H176        H  0.18428982  0.29203319  0.71797196     0.17900
H177        H  0.14011019  0.21251108  0.64717556     0.14200
H178        H  0.13951935  0.44039833  0.69192864     0.14100
H179        H  0.05614648  0.26880905  0.57563992     0.32200
H180        H  0.21858887  0.38163668  0.76776462     0.35000
C181        C  0.21004283  0.64760366  0.31050542     0.20600
C182        C  0.22067362  0.67991260  0.34935886    -0.39300
C183        C  0.18162325  0.68934593  0.36199228     0.19600
C184        C  0.13555709  0.66813061  0.33768790     0.22200
C185        C  0.12537832  0.63659847  0.29830778    -0.39800
C186        C  0.16442856  0.62718985  0.28564159     0.21000
N187        N  0.23891599  0.62940789  0.29403057    -0.33100
C188        C  0.21171815  0.59728007  0.25841158    -0.10600
C189        C  0.16528140  0.59537785  0.25160516    -0.29400
N190        N  0.10279004  0.67880113  0.35923611    -0.46000
C191        C  0.12809433  0.70707030  0.39744657    -0.05300
C192        C  0.17762318  0.71494351  0.40016315    -0.22700
H193        H  0.25584531  0.69485242  0.36942343     0.19100
H194        H  0.08888861  0.61903930  0.28001131     0.17900
H195        H  0.13518650  0.57193089  0.22676610     0.14200
H196        H  0.20557164  0.73397910  0.42785419     0.14100
H197        H  0.27478613  0.63801761  0.30661138     0.32200
H198        H  0.06474352  0.66584565  0.34963140     0.35000
C199        C  0.16319207  0.58992060  0.67586551     0.20600
C200        C  0.13985490  0.58672277  0.63292591    -0.39300
C201        C  0.12717631  0.62384390  0.62542337     0.19600
C202        C  0.13741318  0.66172258  0.65790186     0.22200
C203        C  0.16066679  0.66478826  0.70105779    -0.39800
C204        C  0.17284665  0.62717086  0.70881907     0.21000
N205        N  0.17913122  0.55927524  0.69109873    -0.33100
C206        C  0.19868083  0.57665190  0.73434731    -0.10600
C207        C  0.19538659  0.61898653  0.74668301    -0.29400
N208        N  0.12263157  0.69310738  0.64160076    -0.46000
C209        C  0.10255501  0.67454873  0.59869191    -0.05300
C210        C  0.10470103  0.63147458  0.58746887    -0.22700
H211        H  0.13223033  0.55752611  0.60719400     0.19100
H212        H  0.16871876  0.69424005  0.72662553     0.17900
H213        H  0.20847648  0.64125380  0.77864084     0.14200
H214        H  0.09255136  0.60944546  0.55532105     0.14100
H215        H  0.17639020  0.52824236  0.67304210     0.32200
H216        H  0.12639104  0.72528755  0.65832125     0.35000
C217        C  0.37391141  0.11573724  0.36808458     0.20600
C218        C  0.42642047  0.15222253  0.36297605    -0.39300
C219        C  0.44915164  0.14936354  0.32126478     0.19600
C220        C  0.42159926  0.11339435  0.28686144     0.22200
C221        C  0.36901218  0.07664336  0.29208493    -0.39800
C222        C  0.34635345  0.07907172  0.33416473     0.21000
N223        N  0.34442158  0.10869775  0.40564525    -0.33100
C224        C  0.29791893  0.06681588  0.39602390    -0.10600
C225        C  0.29744698  0.04734341  0.35164512    -0.29400
N226        N  0.45256328  0.11816521  0.25099711    -0.46000
C227        C  0.50028349  0.15697979  0.26305839    -0.05300
C228        C  0.49955232  0.17738411  0.30660013    -0.22700
H229        H  0.44829520  0.18002281  0.39002438     0.19100
H230        H  0.34764615  0.04757892  0.26583655     0.17900
H231        H  0.26620150  0.01357361  0.33515206     0.14200
H232        H  0.53161828  0.20848728  0.32515831     0.14100
H233        H  0.35590422  0.12977056  0.43678304     0.32200
H234        H  0.44217509  0.09551291  0.22083975     0.35000
C235        C  0.61688137  0.21939754  0.03966905     0.20600
C236        C  0.63636914  0.24837336  0.99916755    -0.39300
C237        C  0.61754459  0.22170437  0.95696097     0.19600
C238        C  0.58256860  0.16991458  0.95507928     0.22200
C239        C  0.56299781  0.14074895  0.99574800    -0.39800
C240        C  0.58149859  0.16768323  0.03820749     0.21000
N241        N  0.62826500  0.23644931  0.08382077    -0.33100
C242        C  0.59977296  0.19554348  0.11142552    -0.10600
C243        C  0.57030774  0.15173643  0.08396027    -0.29400
N244        N  0.57098049  0.15384369  0.91049764    -0.46000
C245        C  0.59813459  0.19582250  0.88378685    -0.05300
C246        C  0.62785820  0.23889895  0.91183647    -0.22700
H247        H  0.66381118  0.28893843  0.00047182     0.19100
H248        H  0.53522238  0.10027261  0.99442479     0.17900
H249        H  0.54392260  0.11353538  0.09597048     0.14200
H250        H  0.65403078  0.27764828  0.90122447     0.14100
H251        H  0.65460617  0.27407218  0.09362246     0.32200
H252        H  0.54573188  0.11661832  0.89882645     0.35000
C253        C  0.35946916  0.05405619  0.63536365     0.20600
C254        C  0.40659389  0.05815938  0.64501853    -0.39300
C255        C  0.43281013  0.08771052  0.68418763     0.19600
C256        C  0.41338560  0.11079763  0.71233971     0.22200
C257        C  0.36617932  0.10697633  0.70246027    -0.39800
C258        C  0.34018674  0.07797220  0.66262321     0.21000
N259        N  0.32903216  0.03076229  0.59838650    -0.33100
C260        C  0.29042382  0.04043994  0.60157988    -0.10600
C261        C  0.29578631  0.06963828  0.64120739    -0.29400
N262        N  0.44734894  0.13878938  0.74616273    -0.46000
C263        C  0.48885754  0.13412900  0.73847306    -0.05300
C264        C  0.48097946  0.10238312  0.70044295    -0.22700
H265        H  0.42254008  0.04104277  0.62270893     0.19100
H266        H  0.35162720  0.12644156  0.72329078     0.17900
H267        H  0.27150479  0.08414371  0.65196344     0.14200
H268        H  0.50722033  0.09212523  0.68588557     0.14100
H269        H  0.33530615  0.01127257  0.57153481     0.32200
H270        H  0.44369503  0.16161593  0.77131637     0.35000
C271        C  0.43273981  0.62320825  0.29173493     0.20600
C272        C  0.48454675  0.63745859  0.29705436    -0.39300
C273        C  0.50683039  0.65902863  0.34055299     0.19600
C274        C  0.47957055  0.66607197  0.37571045     0.22200
C275        C  0.42783765  0.65131350  0.37057757    -0.39800
C276        C  0.40562020  0.62950522  0.32741627     0.21000
N277        N  0.40214396  0.60078990  0.25440580    -0.33100
C278        C  0.35515654  0.59235909  0.26687400    -0.10600
C279        C  0.35600723  0.60960395  0.31225143    -0.29400
N280        N  0.50855192  0.68567720  0.41416679    -0.46000
C281        C  0.55447998  0.69069572  0.40376743    -0.05300
C282        C  0.55509188  0.67459070  0.35816243    -0.22700
H283        H  0.50563139  0.63145851  0.26971677     0.19100
H284        H  0.40619778  0.65568726  0.39845865     0.17900
H285        H  0.32465976  0.60740070  0.33219092     0.14200
H286        H  0.58596075  0.67289309  0.34087842     0.14100
H287        H  0.41231586  0.59067422  0.22302299     0.32200
H288        H  0.49710186  0.69323199  0.44615314     0.35000
C289        C  0.42485600  0.60867238  0.71081527     0.20600
C290        C  0.47807333  0.64345495  0.70762957    -0.39300
C291        C  0.50165556  0.64065746  0.66643362     0.19600
C292        C  0.47436036  0.60528592  0.63149465     0.22200
C293        C  0.42106760  0.57080283  0.63452701    -0.39800
C294        C  0.39737427  0.57416172  0.67539418     0.21000
N295        N  0.39344962  0.60435454  0.74592496    -0.33100
C296        C  0.34549095  0.56712319  0.73265585    -0.10600
C297        C  0.34636278  0.54752718  0.68870390    -0.29400
N298        N  0.50493014  0.61220042  0.59484652    -0.46000
C299        C  0.55172314  0.65289391  0.60603727    -0.05300
C300        C  0.55136878  0.67155386  0.65055498    -0.22700
H301        H  0.49928959  0.67144886  0.73472982     0.19100
H302        H  0.39945497  0.54416608  0.60662412     0.17900
H303        H  0.31425028  0.51734971  0.66939829     0.14200
H304        H  0.58243032  0.70478982  0.66786588     0.14100
H305        H  0.40402630  0.62599026  0.77672521     0.32200
H306        H  0.49383032  0.59250852  0.56299057     0.35000
C307        C  0.71767651  0.06717269  0.33766544     0.20600
C308        C  0.69459150  0.06385978  0.29417109    -0.39300
C309        C  0.67936174  0.09946713  0.28692384     0.19600
C310        C  0.68582169  0.13475778  0.32081062     0.22200
C311        C  0.70932594  0.13845896  0.36384838    -0.39800
C312        C  0.72536514  0.10371047  0.37071181     0.21000
N313        N  0.73373346  0.03676132  0.35414111    -0.33100
C314        C  0.75219557  0.05466544  0.39769936    -0.10600
C315        C  0.74801318  0.09660225  0.40897573    -0.29400
N316        N  0.66699356  0.16330467  0.30635533    -0.46000
C317        C  0.64884481  0.14695349  0.26252935    -0.05300
C318        C  0.65609496  0.10713287  0.24905599    -0.22700
H319        H  0.68862043  0.03551249  0.26809550     0.19100
H320        H  0.71442669  0.16620925  0.39025506     0.17900
H321        H  0.75790919  0.11751594  0.44172768     0.14200
H322        H  0.64522229  0.08619352  0.21632169     0.14100
H323        H  0.73122541  0.00518694  0.33732070     0.32200
H324        H  0.66725722  0.19256930  0.32535412     0.35000
C325        C  0.70820041  0.05324520  0.66221244     0.20600
C326        C  0.71444296  0.07983273  0.70448840    -0.39300
C327        C  0.67984628  0.09687486  0.71193827     0.19600
C328        C  0.64265466  0.08859714  0.67943389     0.22200
C329        C  0.63553031  0.06095123  0.63806723    -0.39800
C330        C  0.66945015  0.04347137  0.63088816     0.21000
N331        N  0.73913144  0.03785327  0.64420072    -0.33100
C332        C  0.71945948  0.01801901  0.60134477    -0.10600
C333        C  0.67559903  0.02013615  0.59230822    -0.28000
N334        N  0.61720841  0.11169500  0.69257873    -0.46000
C335        C  0.63708723  0.13402714  0.73447776    -0.05300
C336        C  0.67629909  0.12546042  0.74784522    -0.22700
H337        H  0.74500114  0.08817165  0.72892714     0.19100
H338        H  0.60680235  0.05507929  0.61244273     0.17900
H339        H  0.65363878  0.00977535  0.56018466     0.14200
H340        H  0.69980450  0.13925038  0.77904100     0.14100
H341        H  0.77286681  0.04286878  0.65902879     0.32200
H342        H  0.58830733  0.11227724  0.67373232     0.35000
C343        C  0.74444905  0.45137345  0.33753788     0.20600
C344        C  0.72319660  0.43237780  0.29304708    -0.39300
C345        C  0.70296545  0.38002486  0.28560546     0.19600
C346        C  0.70389609  0.34926983  0.31992263     0.22200
C347        C  0.72614267  0.36836869  0.36379616    -0.39800
C348        C  0.74631029  0.42044730  0.37121732     0.21000
N349        N  0.76036973  0.49799384  0.35544164    -0.33100
C350        C  0.77230264  0.49638969  0.40071062    -0.10600
C351        C  0.76479783  0.44895449  0.41153173    -0.29400
N352        N  0.67876001  0.30042790  0.30592594    -0.46000
C353        C  0.66190355  0.29957671  0.26206919    -0.05300
C354        C  0.67659969  0.34874549  0.24798908    -0.22700
H355        H  0.72053645  0.45606679  0.26694572     0.19100
H356        H  0.72563692  0.34395382  0.39095494     0.17900
H357        H  0.76830041  0.43583120  0.44540542     0.14200
H358        H  0.66777705  0.35991596  0.21534223     0.14100
H359        H  0.76028391  0.52797663  0.33876051     0.32200
H360        H  0.67334416  0.26971485  0.32551835     0.35000
C361        C  0.71402070  0.44046005  0.65875538     0.20600
C362        C  0.72288609  0.41849412  0.69740396    -0.39300
C363        C  0.68556052  0.36744029  0.70558228     0.19600
C364        C  0.64271285  0.33999685  0.67728754     0.22200
C365        C  0.63329640  0.36228503  0.63900425    -0.39800
C366        C  0.67062069  0.41361364  0.63093360     0.21000
N367        N  0.74586605  0.48704419  0.64157263    -0.33100
C368        C  0.72262574  0.49011074  0.60258486    -0.10600
C369        C  0.67532604  0.44529758  0.59504103    -0.29400
N370        N  0.61416707  0.29150175  0.69171898    -0.46000
C371        C  0.63881115  0.28845494  0.72981044    -0.05300
C372        C  0.68332214  0.33511926  0.73953520    -0.22700
H373        H  0.75700967  0.43930477  0.71892995     0.19100
H374        H  0.60009703  0.34093944  0.61650546     0.17900
H375        H  0.64963775  0.43596041  0.56557415     0.14200
H376        H  0.71052258  0.34409739  0.76764802     0.14100
H377        H  0.78223430  0.51423080  0.65439636     0.32200
H378        H  0.57954838  0.26261379  0.67725553     0.35000
loop_ 
_geom_bond_atom_site_label_1 
_geom_bond_atom_site_label_2 
_geom_bond_distance 
_geom_bond_site_symmetry_2 
_ccdc_geom_bond_type 
In1           O3   2.237       .  S
In1           O4   2.266       .  S
In1          O12   2.253       .  S
In1           O6   2.251       .  S
In1           O8   2.263       .  S
In1           O9   2.250       .  S
In1          O10   2.254       .  S
In1          O13   2.265       .  S
C2            O8   1.258       .  A
C2           O10   1.258       .  A
C2           C70   1.468       .  S
O3           C11   1.260       .  A
O4           C11   1.263       .  A
C5           O12   1.260       .  A
C5            O6   1.261       .  A
C5          C368   1.471       .  S
C7            O9   1.257       .  A
C7           O13   1.258       .  A
C7           C33   1.466       .  S
C11         C350   1.471       .  S
In14         O16   2.268   1_565  S
In14         O17   2.245       .  S
In14         O25   2.244   1_565  S
In14         O19   2.267       .  S
In14         O21   2.272   1_565  S
In14         O22   2.264       .  S
In14         O23   2.247   1_565  S
In14         O26   2.268       .  S
C15          O21   1.257       .  A
C15          O23   1.255       .  A
C15          C91   1.466       .  S
O16          C24   1.261       .  A
O17          C24   1.261   1_565  A
C18          O25   1.261       .  A
C18          O19   1.262   1_545  A
C18         C314   1.474       .  S
C20          O22   1.256       .  A
C20          O26   1.257       .  A
C20          C28   1.470       .  S
C24         C332   1.474       .  S
In27         O29   2.263       .  S
In27         O30   2.246       .  S
In27         O38   2.244       .  S
In27         O32   2.231       .  S
In27         O34   2.264       .  S
In27         O35   2.269       .  S
In27         O36   2.261       .  S
In27         O39   2.249       .  S
C28          O34   1.257       .  A
C28          O36   1.258       .  A
O29          C37   1.261       .  A
O30          C37   1.258       .  A
C31          O38   1.263       .  A
C31          O32   1.262       .  A
C31         C281   1.464       .  S
C33          O35   1.258       .  A
C33          O39   1.255       .  A
C37         C299   1.469       .  S
C40          C41   1.539       .  S
C40          C46   1.536       .  S
C40          C44   1.539       .  S
C40         C245   1.514       .  S
C41          H48   1.084       .  S
C41          C42   1.365       .  D
C42          C43   1.541       .  S
C42         C371   1.481       .  S
C43          C47   1.544       .  S
C43          C45   1.536       .  S
C43          H49   1.110       .  S
C44          H50   1.086       .  S
C44          C45   1.363       .  D
C45         C263   1.471       .  S
C46          H51   1.086       .  S
C46          C47   1.367       .  D
C47         C335   1.487       .  S
C52          C53   1.539       .  S
C52          C58   1.540       .  S
C52          C56   1.547       .  S
C52         C242   1.522       .  S
C53          H60   1.086       .  S
C53          C54   1.367       .  D
C54          C55   1.541       .  S
C54         C227   1.482       .  S
C55          C59   1.540       .  S
C55          C57   1.534       .  S
C55          H61   1.107       .  S
C56          H62   1.081       .  S
C56          C57   1.363       .  D
C57         C353   1.484       .  S
C58          H63   1.086       .  S
C58          C59   1.369       .  D
C59         C317   1.487       .  S
In64         O66   2.256       .  S
In64         O67   2.245       .  S
In64         O75   2.228       .  S
In64         O69   2.264       .  S
In64         O71   2.255       .  S
In64         O72   2.253   1_455  S
In64         O73   2.254       .  S
In64         O76   2.269   1_455  S
C65          O71   1.259       .  A
C65          O73   1.257       .  A
C65          C78   1.465       .  S
O66          C74   1.262       .  A
O67          C74   1.261       .  A
C68          O75   1.259       .  A
C68          O69   1.262       .  A
C68         C209   1.466       .  S
C70          O72   1.256       .  A
C70          O76   1.258       .  A
C74         C191   1.471       .  S
In77         O79   2.227   1_545  S
In77         O80   2.247       .  S
In77         O88   2.243       .  S
In77         O82   2.261   1_545  S
In77         O84   2.261   1_545  S
In77         O85   2.262       .  S
In77         O86   2.252   1_545  S
In77         O89   2.250       .  S
C78          O84   1.259       .  A
C78          O86   1.256       .  A
O79          C87   1.261   1_565  A
O80          C87   1.263       .  A
C81          O88   1.259       .  A
C81          O82   1.263   1_545  A
C81         C224   1.471       .  S
C83          O85   1.258       .  A
C83          O89   1.256       .  A
C83          C96   1.464       .  S
C87         C260   1.463       .  S
In90         O92   2.261       .  S
In90         O93   2.246       .  S
In90        O101   2.238       .  S
In90         O95   2.241       .  S
In90         O97   2.245   1_455  S
In90         O98   2.255       .  S
In90         O99   2.267   1_455  S
In90        O102   2.258       .  S
C91          O97   1.256       .  A
C91          O99   1.259       .  A
O92         C100   1.262       .  A
O93         C100   1.259       .  A
C94         O101   1.262       .  A
C94          O95   1.262       .  A
C94         C170   1.463       .  S
C96          O98   1.257       .  A
C96         O102   1.256       .  A
C100        C152   1.471       .  S
C103        C104   1.538       .  S
C103        C109   1.538       .  S
C103        C107   1.542       .  S
C103        C134   1.515       .  S
C104        H111   1.086       .  S
C104        C105   1.362       .  D
C105        C106   1.530       .  S
C105        C173   1.465       .  S
C106        C110   1.535       .  S
C106        C108   1.537       .  S
C106        H112   1.109       .  S
C107        H113   1.082       .  S
C107        C108   1.365       .  D
C108        C296   1.480       .  S
C109        H114   1.086       .  S
C109        C110   1.368       .  D
C110        C206   1.477       .  S
C115        C116   1.549       .  S
C115        C121   1.538       .  S
C115        C119   1.538       .  S
C115        C137   1.517       .  S
C116        H123   1.082       .  S
C116        C117   1.365       .  D
C117        C118   1.530       .  S
C117        C278   1.478       .  S
C118        C122   1.534       .  S
C118        C120   1.542       .  S
C118        H124   1.108       .  S
C119        H125   1.086       .  S
C119        C120   1.369       .  D
C120        C155   1.484       .  S
C121        H126   1.086       .  S
C121        C122   1.364       .  D
C122        C188   1.477       .  S
C127        C132   1.383       .  A
C127        C128   1.400       .  A
C127        N133   1.340       .  A
C128        C129   1.399   1_556  A
C128        H139   1.082       .  S
C129        C138   1.373       .  A
C129        C130   1.382       .  A
C130        C131   1.408       .  A
C130        N136   1.346       .  A
C131        C132   1.408   1_554  A
C131        H140   1.082       .  S
C132        C135   1.381       .  A
N133        C134   1.357       .  A
N133        H143   1.042       .  S
C134        C135   1.401       .  A
C135        H141   1.082       .  S
N136        C137   1.360       .  A
N136        H144   1.045       .  S
C137        C138   1.399       .  A
C138        H142   1.080       .  S
C145        C150   1.384       .  A
C145        C146   1.403       .  A
C145        N151   1.343       .  A
C146        C147   1.402       .  A
C146        H157   1.082       .  S
C147        C156   1.377       .  A
C147        C148   1.383       .  A
C148        C149   1.406       .  A
C148        N154   1.346       .  A
C149        C150   1.405       .  A
C149        H158   1.082       .  S
C150        C153   1.382       .  A
N151        C152   1.355       .  A
N151        H161   1.045       .  S
C152        C153   1.395       .  A
C153        H159   1.082       .  S
N154        C155   1.358       .  A
N154        H162   1.044       .  S
C155        C156   1.396       .  A
C156        H160   1.082       .  S
C163        C168   1.385       .  A
C163        C164   1.400       .  A
C163        N169   1.341       .  A
C164        C165   1.400       .  A
C164        H175   1.083       .  S
C165        C174   1.373       .  A
C165        C166   1.385       .  A
C166        C167   1.402       .  A
C166        N172   1.343       .  A
C167        C168   1.402       .  A
C167        H176   1.082       .  S
C168        C171   1.377       .  A
N169        C170   1.354       .  A
N169        H179   1.045       .  S
C170        C171   1.394       .  A
C171        H177   1.082       .  S
N172        C173   1.353       .  A
N172        H180   1.045       .  S
C173        C174   1.391       .  A
C174        H178   1.081       .  S
C181        C186   1.384       .  A
C181        C182   1.405       .  A
C181        N187   1.342       .  A
C182        C183   1.403       .  A
C182        H193   1.083       .  S
C183        C192   1.381       .  A
C183        C184   1.385       .  A
C184        C185   1.405       .  A
C184        N190   1.343       .  A
C185        C186   1.403       .  A
C185        H194   1.082       .  S
C186        C189   1.382       .  A
N187        C188   1.355       .  A
N187        H197   1.043       .  S
C188        C189   1.394       .  A
C189        H195   1.082       .  S
N190        C191   1.355       .  A
N190        H198   1.045       .  S
C191        C192   1.395       .  A
C192        H196   1.082       .  S
C199        C204   1.384       .  A
C199        C200   1.400       .  A
C199        N205   1.340       .  A
C200        C201   1.399       .  A
C200        H211   1.083       .  S
C201        C210   1.372       .  A
C201        C202   1.385       .  A
C202        C203   1.405       .  A
C202        N208   1.346       .  A
C203        C204   1.404       .  A
C203        H212   1.082       .  S
C204        C207   1.379       .  A
N205        C206   1.355       .  A
N205        H215   1.044       .  S
C206        C207   1.396       .  A
C207        H213   1.082       .  S
N208        C209   1.356       .  A
N208        H216   1.045       .  S
C209        C210   1.392       .  A
C210        H214   1.083       .  S
C217        C222   1.385       .  A
C217        C218   1.403       .  A
C217        N223   1.343       .  A
C218        C219   1.402       .  A
C218        H229   1.082       .  S
C219        C228   1.377       .  A
C219        C220   1.384       .  A
C220        C221   1.407       .  A
C220        N226   1.347       .  A
C221        C222   1.406       .  A
C221        H230   1.082       .  S
C222        C225   1.382       .  A
N223        C224   1.355       .  A
N223        H233   1.045       .  S
C224        C225   1.396       .  A
C225        H231   1.082       .  S
N226        C227   1.358       .  A
N226        H234   1.044       .  S
C227        C228   1.395       .  A
C228        H232   1.082       .  S
C235        C240   1.382       .  A
C235        C236   1.402   1_554  A
C235        N241   1.340       .  A
C236        C237   1.399       .  A
C236        H247   1.083   1_556  S
C237        C246   1.376       .  A
C237        C238   1.382       .  A
C238        C239   1.408       .  A
C238        N244   1.345       .  A
C239        C240   1.407   1_556  A
C239        H248   1.082       .  S
C240        C243   1.384       .  A
N241        C242   1.359       .  A
N241        H251   1.044       .  S
C242        C243   1.401       .  A
C243        H249   1.082       .  S
N244        C245   1.359       .  A
N244        H252   1.045       .  S
C245        C246   1.398       .  A
C246        H250   1.081       .  S
C253        C258   1.386       .  A
C253        C254   1.398       .  A
C253        N259   1.339       .  A
C254        C255   1.397       .  A
C254        H265   1.083       .  S
C255        C264   1.369       .  A
C255        C256   1.384       .  A
C256        C257   1.405       .  A
C256        N262   1.346       .  A
C257        C258   1.405       .  A
C257        H266   1.082       .  S
C258        C261   1.380       .  A
N259        C260   1.352       .  A
N259        H269   1.045       .  S
C260        C261   1.395       .  A
C261        H267   1.082       .  S
N262        C263   1.356       .  A
N262        H270   1.045       .  S
C263        C264   1.389       .  A
C264        H268   1.078       .  S
C271        C276   1.383       .  A
C271        C272   1.405       .  A
C271        N277   1.345       .  A
C272        C273   1.405       .  A
C272        H283   1.082       .  S
C273        C282   1.380       .  A
C273        C274   1.385       .  A
C274        C275   1.398       .  A
C274        N280   1.340       .  A
C275        C276   1.397       .  A
C275        H284   1.083       .  S
C276        C279   1.369       .  A
N277        C278   1.358       .  A
N277        H287   1.044       .  S
C278        C279   1.394       .  A
C279        H285   1.080       .  S
N280        C281   1.353       .  A
N280        H288   1.044       .  S
C281        C282   1.395       .  A
C282        H286   1.082       .  S
C289        C294   1.384       .  A
C289        C290   1.404       .  A
C289        N295   1.343       .  A
C290        C291   1.403       .  A
C290        H301   1.082       .  S
C291        C300   1.380       .  A
C291        C292   1.385       .  A
C292        C293   1.404       .  A
C292        N298   1.342       .  A
C293        C294   1.402       .  A
C293        H302   1.082       .  S
C294        C297   1.379       .  A
N295        C296   1.356       .  A
N295        H305   1.045       .  S
C296        C297   1.396       .  A
C297        H303   1.082       .  S
N298        C299   1.355       .  A
N298        H306   1.044       .  S
C299        C300   1.395       .  A
C300        H304   1.082       .  S
C307        C312   1.384       .  A
C307        C308   1.409       .  A
C307        N313   1.349       .  A
C308        C309   1.409       .  A
C308        H319   1.082       .  S
C309        C318   1.385       .  A
C309        C310   1.383       .  A
C310        C311   1.401       .  A
C310        N316   1.341       .  A
C311        C312   1.400       .  A
C311        H320   1.082       .  S
C312        C315   1.375       .  A
N313        C314   1.358       .  A
N313        H323   1.045       .  S
C314        C315   1.393       .  A
C315        H321   1.082       .  S
N316        C317   1.356       .  A
N316        H324   1.042       .  S
C317        C318   1.400       .  A
C318        H322   1.082       .  S
C325        C330   1.384       .  A
C325        C326   1.410       .  A
C325        N331   1.349       .  A
C326        C327   1.409       .  A
C326        H337   1.082       .  S
C327        C336   1.384       .  A
C327        C328   1.383       .  A
C328        C329   1.400       .  A
C328        N334   1.342       .  A
C329        C330   1.399       .  A
C329        H338   1.082       .  S
C330        C333   1.374       .  A
N331        C332   1.359       .  A
N331        H341   1.045       .  S
C332        C333   1.391       .  A
C333        H339   1.082       .  S
N334        C335   1.354       .  A
N334        H342   1.040       .  S
C335        C336   1.401       .  A
C336        H340   1.082       .  S
C343        C348   1.385       .  A
C343        C344   1.408       .  A
C343        N349   1.347       .  A
C344        C345   1.407       .  A
C344        H355   1.082       .  S
C345        C354   1.382       .  A
C345        C346   1.383       .  A
C346        C347   1.400       .  A
C346        N352   1.340       .  A
C347        C348   1.399       .  A
C347        H356   1.083       .  S
C348        C351   1.374       .  A
N349        C350   1.357       .  A
N349        H359   1.045       .  S
C350        C351   1.393       .  A
C351        H357   1.083       .  S
N352        C353   1.354       .  A
N352        H360   1.042       .  S
C353        C354   1.400       .  A
C354        H358   1.082       .  S
C361        C366   1.385       .  A
C361        C362   1.402       .  A
C361        N367   1.344       .  A
C362        C363   1.402       .  A
C362        H373   1.082       .  S
C363        C372   1.376       .  A
C363        C364   1.384       .  A
C364        C365   1.407       .  A
C364        N370   1.348       .  A
C365        C366   1.407       .  A
C365        H374   1.082       .  S
C366        C369   1.381       .  A
N367        C368   1.354       .  A
N367        H377   1.045       .  S
C368        C369   1.396       .  A
C369        H375   1.082       .  S
N370        C371   1.358       .  A
N370        H378   1.045       .  S
C371        C372   1.394       .  A
C372        H376   1.082       .  S
