geometry optimzed in LAMMPS
_audit_creation_date              2020-11-30 
_audit_creation_method            'lammps2cif' 
_symmetry_space_group_name_H-M    'P1' 
_symmetry_Int_Tables_number       1 
_symmetry_cell_setting            triclinic 
loop_ 
_symmetry_equiv_pos_as_xyz 
  x,y,z 
_cell_length_a                    66.5968225 
_cell_length_b                    38.246620049118015 
_cell_length_c                    67.74743100309301 
_cell_angle_alpha                 90.09052408986538 
_cell_angle_beta                  90.12837552229263 
_cell_angle_gamma                 89.9963146494728 
loop_ 
_atom_site_label 
_atom_site_type_symbol 
_atom_site_fract_x 
_atom_site_fract_y 
_atom_site_fract_z 
_atom_site_charge 
N1          N  0.09907240  0.48388688  0.50766711    -0.26800
N2          N  0.09022528  0.51353201  0.50277743    -0.34600
C3          C  0.07256301  0.50665024  0.49408518     0.01600
C4          C  0.07006409  0.47074238  0.49339752     0.07600
C5          C  0.08722786  0.45709467  0.50204409    -0.05500
H6          H  0.06219204  0.52660237  0.48921039     0.08300
H7          H  0.09058761  0.42978135  0.50455030     0.09500
Cu8        Cu  0.10090392  0.56219754  0.51033856     0.44200
Cu9        Cu  0.12626691  0.48291475  0.52269365     0.42000
Cu10       Cu  0.14212162  0.56764509  0.54392228     0.43900
N11         N  0.10799808  0.60709894  0.52554703    -0.34200
N12         N  0.12221707  0.60890698  0.53913982    -0.28400
C13         C  0.12082311  0.64006767  0.54840130    -0.04500
C14         C  0.10515090  0.65862808  0.53989914     0.07700
C15         C  0.09744856  0.63696695  0.52546436     0.01500
H16         H  0.13030914  0.64838946  0.56050985     0.09200
H17         H  0.08437063  0.64169635  0.51634827     0.08200
N18         N  0.15982056  0.52260389  0.54327889    -0.35600
N19         N  0.15394940  0.49219273  0.53588958    -0.27800
C20         C  0.16928994  0.46940509  0.53689181    -0.03000
C21         C  0.18567159  0.48614916  0.54511808     0.05600
C22         C  0.17912281  0.51987818  0.54905802     0.03700
H23         H  0.16877167  0.44287336  0.53135134     0.08800
H24         H  0.18778764  0.54120720  0.55518658     0.07600
N25         N  0.04120097  0.81355354  0.60293987    -0.26800
N26         N  0.05549544  0.79105459  0.60768374    -0.34600
C27         C  0.05557340  0.78670807  0.62737910     0.01600
C28         C  0.04053765  0.80718671  0.63536610     0.07600
C29         C  0.03174547  0.82395749  0.61944936    -0.05500
H30         H  0.06549037  0.76917699  0.63525656     0.08300
H31         H  0.01935715  0.84223047  0.61972421     0.09500
Cu32       Cu  0.07305280  0.76469540  0.58718359     0.44200
Cu33       Cu  0.03469909  0.82885318  0.57433964     0.42000
Cu34       Cu  0.05917868  0.78037937  0.53609913     0.43900
N35         N  0.08410220  0.73566163  0.56366526    -0.34200
N36         N  0.07812178  0.74045845  0.54523519    -0.28400
C37         C  0.08545471  0.71458025  0.53393519    -0.04500
C38         C  0.09681628  0.69269178  0.54571410     0.07700
C39         C  0.09573611  0.70685859  0.56448220     0.01500
H40         H  0.08216636  0.71128056  0.51839800     0.09200
H41         H  0.10169257  0.69567995  0.57793497     0.08200
N42         N  0.04038138  0.82247633  0.53050689    -0.35600
N43         N  0.03137538  0.84029475  0.54466783    -0.27800
C44         C  0.02056422  0.86625563  0.53655540    -0.03000
C45         C  0.02283044  0.86474034  0.51630283     0.05600
C46         C  0.03553868  0.83662161  0.51295181     0.03700
H47         H  0.01179869  0.88504250  0.54481839     0.08800
H48         H  0.04106312  0.82723703  0.49891295     0.07600
N49         N  0.97282930  0.07126343  0.30622714    -0.26800
N50         N  0.96048771  0.09653024  0.30072451    -0.34600
C51         C  0.96488809  0.10587485  0.28207919     0.01600
C52         C  0.98083057  0.08553362  0.27567059     0.07600
C53         C  0.98546547  0.06400969  0.29135161    -0.05500
H54         H  0.95751938  0.12677775  0.27413226     0.08300
H55         H  0.99739455  0.04483576  0.29203575     0.09500
Cu56       Cu  0.93976528  0.11947562  0.31961212     0.44200
Cu57       Cu  0.97288751  0.04873775  0.33392287     0.42000
Cu58       Cu  0.94143937  0.08842760  0.37050273     0.43900
N59         N  0.92426402  0.14275243  0.34273647    -0.34200
N60         N  0.92559520  0.13221437  0.36128840    -0.28400
C61         C  0.91652014  0.15580406  0.37297948    -0.04500
C62         C  0.90888984  0.18217002  0.36123324     0.07700
C63         C  0.91397333  0.17303909  0.34213620     0.01500
H64         H  0.91633635  0.15467513  0.38893340     0.09200
H65         H  0.91184339  0.18866665  0.32900043     0.08200
N66         N  0.95964009  0.04557232  0.37622186    -0.35600
N67         N  0.97117441  0.03103032  0.36265986    -0.27800
C68         C  0.98150217  0.00454037  0.37082083    -0.03000
C69         C  0.97632245  0.00234393  0.39050538     0.05600
C70         C  0.96235232  0.02874077  0.39345204     0.03700
H71         H  0.99224526  0.98840137  0.36305091     0.08800
H72         H  0.95479645  0.03549039  0.40704410     0.07600
N73         N  0.90671852  0.38466864  0.41026483    -0.26800
N74         N  0.91513720  0.35425869  0.41438770    -0.34600
C75         C  0.93147581  0.35966066  0.42566460     0.01600
C76         C  0.93337947  0.39530087  0.42885494     0.07600
C77         C  0.91740867  0.41028835  0.41891731    -0.05500
H78         H  0.94151654  0.33915507  0.43049121     0.08300
H79         H  0.91417820  0.43789894  0.41752456     0.09500
Cu80       Cu  0.90549821  0.30729296  0.40259302     0.44200
Cu81       Cu  0.88197600  0.38978306  0.39191870     0.42000
Cu82       Cu  0.87012168  0.31287869  0.36238027     0.43900
N83         N  0.89853148  0.26573179  0.38431673    -0.34200
N84         N  0.88693062  0.26837013  0.36852764    -0.28400
C85         C  0.88823234  0.23849470  0.35804420    -0.04500
C86         C  0.90098178  0.21595536  0.36798316     0.07700
C87         C  0.90713616  0.23398751  0.38458691     0.01500
H88         H  0.88078403  0.23381226  0.34408158     0.09200
H89         H  0.91818653  0.22563617  0.39531913     0.08200
N90         N  0.85256303  0.35783514  0.36318561    -0.35600
N91         N  0.85686994  0.38574059  0.37394539    -0.27800
C92         C  0.84148203  0.40845382  0.37290145    -0.03000
C93         C  0.82669847  0.39405169  0.36097976     0.05600
C94         C  0.83427219  0.36204920  0.35507203     0.03700
H95         H  0.84071952  0.43262112  0.38117388     0.08800
H96         H  0.82658789  0.34242801  0.34636580     0.07600
N97         N  0.04172140  0.06436169  0.10259983    -0.26800
N98         N  0.05298968  0.09145194  0.10759367    -0.34600
C99         C  0.04749771  0.10259634  0.12564542     0.01600
C100        C  0.03199799  0.08147814  0.13224116     0.07600
C101        C  0.02871576  0.05767369  0.11724855    -0.05500
H102        H  0.05393878  0.12500150  0.13308373     0.08300
H103        H  0.01752527  0.03717269  0.11690688     0.09500
Cu104      Cu  0.07400828  0.11399841  0.08893574     0.44200
Cu105      Cu  0.04350108  0.03855353  0.07578908     0.42000
Cu106      Cu  0.07314174  0.08090439  0.03869583     0.43900
N107        N  0.08977632  0.13658007  0.06583519    -0.34200
N108        N  0.08849099  0.12552187  0.04736518    -0.28400
C109        C  0.09771819  0.14863000  0.03552491    -0.04500
C110        C  0.10548255  0.17512189  0.04712439     0.07700
C111        C  0.10026272  0.16666235  0.06626684     0.01500
H112        H  0.09814311  0.14687052  0.01959166     0.09200
H113        H  0.10254908  0.18252535  0.07931512     0.08200
N114        N  0.05672371  0.03578240  0.03349353    -0.35600
N115        N  0.04596842  0.01997784  0.04719599    -0.27800
C116        C  0.03666420  0.99219410  0.03913080    -0.03000
C117        C  0.04175059  0.99047303  0.01938139     0.05600
C118        C  0.05455722  0.01852863  0.01631731     0.03700
H119        H  0.02656560  0.97497571  0.04696829     0.08800
H120        H  0.06157144  0.02634375  0.00264059     0.07600
N121        N  0.11200972  0.37937125  0.00091429    -0.26800
N122        N  0.10303293  0.34962328  0.99632531    -0.34600
C123        C  0.08649141  0.35640424  0.98562767     0.01600
C124        C  0.08487609  0.39228015  0.98332057     0.07600
C125        C  0.10138963  0.40598344  0.99311304    -0.05500
H126        H  0.07610333  0.33654780  0.98062982     0.08300
H127        H  0.10500137  0.43335601  0.99504535     0.09500
Cu128      Cu  0.11172911  0.30125494  0.00691358     0.44200
Cu129      Cu  0.13740744  0.38175819  0.01885485     0.42000
Cu130      Cu  0.14945895  0.30038965  0.04461451     0.43900
N131        N  0.11766976  0.25800971  0.02422280    -0.34200
N132        N  0.13046817  0.25844295  0.03915680    -0.28400
C133        C  0.12854375  0.22853467  0.04944031    -0.04500
C134        C  0.11411337  0.20819839  0.04023489     0.07700
C135        C  0.10759169  0.22758069  0.02428529     0.01500
H136        H  0.13677972  0.22233119  0.06276365     0.09200
H137        H  0.09547348  0.22108393  0.01426897     0.08200
N138        N  0.16762047  0.34451437  0.04486692    -0.35600
N139        N  0.16309193  0.37423605  0.03592799    -0.27800
C140        C  0.17855955  0.39658445  0.03804843    -0.03000
C141        C  0.19360965  0.38000250  0.04866691     0.05600
C142        C  0.18616204  0.34705559  0.05267013     0.03700
H143        H  0.17921538  0.42219849  0.03133973     0.08800
H144        H  0.19393599  0.32599997  0.06010263     0.07600
N145        N  0.91850924  0.48402439  0.90643115    -0.26800
N146        N  0.92765256  0.51394305  0.91011939    -0.34600
C147        C  0.94538782  0.50761475  0.91887804     0.01600
C148        C  0.94754977  0.47176958  0.92087171     0.07600
C149        C  0.93018271  0.45764384  0.91287046    -0.05500
H150        H  0.95601211  0.52773933  0.92296969     0.08300
H151        H  0.92651329  0.43019818  0.91144893     0.09500
Cu152      Cu  0.91652194  0.56153014  0.90104704     0.44200
Cu153      Cu  0.89111937  0.48204964  0.89180196     0.42000
Cu154      Cu  0.87529724  0.56254015  0.86619693     0.43900
N155        N  0.90819541  0.60495304  0.88508762    -0.34200
N156        N  0.89432722  0.60512876  0.87108967    -0.28400
C157        C  0.89517908  0.63606243  0.86156503    -0.04500
C158        C  0.91007865  0.65617179  0.87032035     0.07700
C159        C  0.91789108  0.63566421  0.88517880     0.01500
H160        H  0.88589278  0.64315580  0.84907611     0.09200
H161        H  0.93059382  0.64170282  0.89456550     0.08200
N162        N  0.85787670  0.51722038  0.86826190    -0.35600
N163        N  0.86369549  0.48859245  0.87763713    -0.27800
C164        C  0.84856846  0.46535569  0.87757941    -0.03000
C165        C  0.83239134  0.47978156  0.86776702     0.05600
C166        C  0.83881103  0.51275114  0.86198733     0.03700
H167        H  0.84910706  0.44009623  0.88472535     0.08800
H168        H  0.83013050  0.53254784  0.85443315     0.07600
N169        N  0.97358532  0.80871129  0.80525599    -0.26800
N170        N  0.95898087  0.78651805  0.80094084    -0.34600
C171        C  0.95801464  0.78255443  0.78122661     0.01600
C172        C  0.97275006  0.80304382  0.77275808     0.07600
C173        C  0.98230535  0.81936414  0.78844164    -0.05500
H174        H  0.94767741  0.76531277  0.77364586     0.08300
H175        H  0.99479385  0.83738606  0.78783768     0.09500
Cu176      Cu  0.94201243  0.76026596  0.82188403     0.44200
Cu177      Cu  0.98182594  0.82315698  0.83362456     0.42000
Cu178      Cu  0.95714251  0.77632857  0.87230313     0.43900
N179        N  0.93087080  0.73230888  0.84569202    -0.34200
N180        N  0.93704121  0.73767024  0.86401000    -0.28400
C181        C  0.92957172  0.71249125  0.87565694    -0.04500
C182        C  0.91801226  0.69031911  0.86419459     0.07700
C183        C  0.91905307  0.70371192  0.84526444     0.01500
H184        H  0.93315324  0.70953722  0.89114876     0.09200
H185        H  0.91306541  0.69197894  0.83195695     0.08200
N186        N  0.97779024  0.81574747  0.87750462    -0.35600
N187        N  0.98695193  0.83305302  0.86327435    -0.27800
C188        C  0.99902821  0.85736095  0.87138159    -0.03000
C189        C  0.99737720  0.85524044  0.89169279     0.05600
C190        C  0.98375852  0.82851143  0.89505620     0.03700
H191        H  0.00811515  0.87559827  0.86309301     0.08800
H192        H  0.97827181  0.81923817  0.90911337     0.07600
N193        N  0.40615312  0.54316506  0.00445942    -0.26800
N194        N  0.41720600  0.57181529  0.00457692    -0.34600
C195        C  0.43338836  0.56695651  0.99307978     0.01600
C196        C  0.43252411  0.53344794  0.98529496     0.07600
C197        C  0.41499885  0.51919503  0.99278116    -0.05500
H198        H  0.44502642  0.58628362  0.99096383     0.08300
H199        H  0.40934100  0.49304310  0.99027644     0.09500
Cu200      Cu  0.41042156  0.61506495  0.02160809     0.44200
Cu201      Cu  0.38028560  0.53852285  0.02134647     0.42000
Cu202      Cu  0.37100091  0.60775549  0.05812449     0.43900
N203        N  0.40352363  0.65374562  0.04181405    -0.34200
N204        N  0.39008656  0.65071538  0.05605443    -0.28400
C205        C  0.38990751  0.68055032  0.06671798    -0.04500
C206        C  0.40362625  0.70340241  0.05844026     0.07700
C207        C  0.41190050  0.68558653  0.04271702     0.01500
H208        H  0.37984855  0.68583852  0.07887848     0.09200
H209        H  0.42314267  0.69513563  0.03255865     0.08200
N210        N  0.35206096  0.56524831  0.05314331    -0.35600
N211        N  0.35544557  0.54056966  0.03983845    -0.27800
C212        C  0.33990513  0.51813359  0.03971094    -0.03000
C213        C  0.32600096  0.52914792  0.05357729     0.05600
C214        C  0.33418808  0.55913528  0.06174208     0.03700
H215        H  0.33866980  0.49607106  0.02978597     0.08800
H216        H  0.32743466  0.57574981  0.07283103     0.07600
N217        N  0.45791306  0.88093597  0.11062608    -0.26800
N218        N  0.44619108  0.85587404  0.11763659    -0.34600
C219        C  0.44889866  0.85357123  0.13726036     0.01600
C220        C  0.46311018  0.87788577  0.14291742     0.07600
C221        C  0.46846872  0.89492885  0.12567500    -0.05500
H222        H  0.44163618  0.83452713  0.14662848     0.08300
H223        H  0.47943874  0.91557047  0.12405169     0.09500
Cu224      Cu  0.42861563  0.82203541  0.10082074     0.44200
Cu225      Cu  0.46010522  0.89482973  0.08091653     0.42000
Cu226      Cu  0.43109518  0.83910041  0.04960772     0.43900
N227        N  0.41710393  0.78753236  0.07991791    -0.34200
N228        N  0.41875359  0.79410551  0.06086533    -0.28400
C229        C  0.41332132  0.76573047  0.05053127    -0.04500
C230        C  0.40770812  0.74000346  0.06364253     0.07700
C231        C  0.41015321  0.75464408  0.08222638     0.01500
H232        H  0.41433979  0.76345146  0.03464409     0.09200
H233        H  0.40860355  0.74150819  0.09627211     0.08200
N234        N  0.44693315  0.88139171  0.03927935    -0.35600
N235        N  0.45821374  0.90186698  0.05043702    -0.27800
C236        C  0.46722140  0.92574001  0.03877819    -0.03000
C237        C  0.46113527  0.91970897  0.01942590     0.05600
C238        C  0.44829361  0.89153963  0.02040305     0.03700
H239        H  0.47736565  0.94581483  0.04401466     0.08800
H240        H  0.44069681  0.87889650  0.00819317     0.07600
N241        N  0.53120984  0.08762590  0.81278294    -0.26800
N242        N  0.54378210  0.10984142  0.80435834    -0.34600
C243        C  0.54089885  0.10915251  0.78471504     0.01600
C244        C  0.52575339  0.08543305  0.78051806     0.07600
C245        C  0.51995958  0.07236382  0.79865658    -0.05500
H246        H  0.54864248  0.12599233  0.77442723     0.08300
H247        H  0.50803493  0.05381696  0.80143950     0.09500
Cu248      Cu  0.56265541  0.14384116  0.81950317     0.44200
Cu249      Cu  0.52874191  0.08032266  0.84314662     0.42000
Cu250      Cu  0.55699324  0.14161941  0.87209772     0.43900
N251        N  0.57530584  0.18099861  0.83810434    -0.34200
N252        N  0.57236914  0.18057761  0.85738863    -0.28400
C253        C  0.57917173  0.21058253  0.86520569    -0.04500
C254        C  0.58709742  0.23066202  0.85021814     0.07700
C255        C  0.58442627  0.21121323  0.83317741     0.01500
H256        H  0.57745513  0.21806335  0.88051805     0.09200
H257        H  0.58720482  0.21968489  0.81820222     0.08200
N258        N  0.54003453  0.10198514  0.88434891    -0.35600
N259        N  0.52936482  0.07946931  0.87387215    -0.27800
C260        C  0.51996694  0.05740156  0.88629520    -0.03000
C261        C  0.52509020  0.06661746  0.90548797     0.05600
C262        C  0.53783159  0.09487003  0.90362677     0.03700
H263        H  0.51036443  0.03611643  0.88164333     0.08800
H264        H  0.54500158  0.10927950  0.91546001     0.07600
N265        N  0.58912317  0.44178709  0.88997010    -0.26800
N266        N  0.57627741  0.41567610  0.88831163    -0.34600
C267        C  0.55884789  0.42457582  0.89684227     0.01600
C268        C  0.56069822  0.45814406  0.90434631     0.07600
C269        C  0.58014386  0.46823936  0.89973573    -0.05500
H270        H  0.54601310  0.40736349  0.89775945     0.08300
H271        H  0.58729485  0.49279298  0.90343377     0.09500
Cu272      Cu  0.58321865  0.36862153  0.87517334     0.44200
Cu273      Cu  0.61825562  0.43783342  0.87911231     0.42000
Cu274      Cu  0.63186470  0.35517295  0.85340770     0.43900
N275        N  0.59184479  0.32256133  0.86187212    -0.34200
N276        N  0.60929965  0.31746387  0.85306854    -0.28400
C277        C  0.61005779  0.28416483  0.84649722    -0.04500
C278        C  0.59232464  0.26778200  0.85177266     0.07700
C279        C  0.58123012  0.29278821  0.86152869     0.01500
H280        H  0.62297533  0.27224871  0.83954953     0.09200
H281        H  0.56669243  0.28936384  0.86835843     0.08200
N282        N  0.65164277  0.39622455  0.85915023    -0.35600
N283        N  0.64662497  0.42572152  0.86815913    -0.27800
C284        C  0.66297448  0.44616512  0.86965242    -0.03000
C285        C  0.67908782  0.42882765  0.86139025     0.05600
C286        C  0.67138471  0.39718510  0.85484530     0.03700
H287        H  0.66316640  0.47173637  0.87650779     0.08800
H288        H  0.67943717  0.37637446  0.84748102     0.07600
N289        N  0.42918272  0.43808706  0.51996987    -0.26800
N290        N  0.44016612  0.40940817  0.51907825    -0.34600
C291        C  0.45743359  0.41642292  0.50968121     0.01600
C292        C  0.45730470  0.45137195  0.50432204     0.07600
C293        C  0.43914644  0.46426807  0.51106408    -0.05500
H294        H  0.46895649  0.39720642  0.50673317     0.08300
H295        H  0.43347862  0.49060312  0.50937421     0.09500
Cu296      Cu  0.43079518  0.36212893  0.53039041     0.42600
Cu297      Cu  0.40089231  0.43861370  0.53263327     0.42000
Cu298      Cu  0.38414494  0.35839554  0.55772985     0.43900
N299        N  0.42031701  0.31790306  0.54437197    -0.34200
N300        N  0.40399743  0.31656847  0.55543655    -0.28400
C301        C  0.40227669  0.28408600  0.56297747    -0.04500
C302        C  0.41811966  0.26427294  0.55596111     0.07700
C303        C  0.42914611  0.28640491  0.54418566     0.01500
H304        H  0.39007492  0.27528116  0.57223906     0.09200
H305        H  0.44272340  0.28016827  0.53617417     0.08200
N306        N  0.36623624  0.40229409  0.55314869    -0.35600
N307        N  0.37237754  0.43096696  0.54406340    -0.27800
C308        C  0.35683086  0.45311999  0.54224554    -0.03000
C309        C  0.34005558  0.43779890  0.55045623     0.05600
C310        C  0.34655591  0.40555372  0.55730750     0.03700
H311        H  0.35755183  0.47818296  0.53489210     0.08800
H312        H  0.33762690  0.38545233  0.56426053     0.07600
N313        N  0.47995135  0.08641896  0.59849570    -0.26800
N314        N  0.46843245  0.11054638  0.60675942    -0.34600
C315        C  0.47150062  0.11037426  0.62636956     0.01600
C316        C  0.48566024  0.08503891  0.63072896     0.07600
C317        C  0.49076069  0.07050604  0.61271245    -0.05500
H318        H  0.46449056  0.12841691  0.63655389     0.08300
H319        H  0.50176148  0.05021105  0.61008861     0.09500
Cu320      Cu  0.45006719  0.14530517  0.59159574     0.44200
Cu321      Cu  0.48102650  0.07651745  0.56825202     0.42000
Cu322      Cu  0.44915089  0.13356871  0.53971342     0.43900
N323        N  0.43537849  0.17970713  0.57278424    -0.34200
N324        N  0.43552543  0.17522444  0.55345852    -0.28400
C325        C  0.42792387  0.20373025  0.54469738    -0.04500
C326        C  0.42237489  0.22716311  0.55918709     0.07700
C327        C  0.42732347  0.21122063  0.57687700     0.01500
H328        H  0.42778330  0.20809634  0.52892191     0.09200
H329        H  0.42693105  0.22296568  0.59140810     0.08200
N330        N  0.46614266  0.09421520  0.52753394    -0.35600
N331        N  0.47817368  0.07340900  0.53767255    -0.27800
C332        C  0.48775927  0.05205810  0.52496134    -0.03000
C333        C  0.48135306  0.06010131  0.50597521     0.05600
C334        C  0.46766152  0.08679509  0.50824594     0.03700
H335        H  0.49867739  0.03257027  0.52927094     0.08800
H336        H  0.45966342  0.10042074  0.49665740     0.07600
N337        N  0.60830764  0.53622844  0.40082047    -0.26800
N338        N  0.59677685  0.56426098  0.40054597    -0.34600
C339        C  0.58106796  0.55945059  0.41259565     0.01600
C340        C  0.58271457  0.52653679  0.42092846     0.07600
C341        C  0.60022318  0.51258242  0.41318404    -0.05500
H342        H  0.56923962  0.57842764  0.41472106     0.08300
H343        H  0.60639897  0.48691964  0.41603289     0.09500
Cu344      Cu  0.60240954  0.60678197  0.38293444     0.44200
Cu345      Cu  0.63391670  0.53291675  0.38350832     0.42000
Cu346      Cu  0.64409852  0.60700032  0.34927150     0.43900
N347        N  0.60850612  0.64714097  0.36390455    -0.34200
N348        N  0.62325980  0.64758541  0.35089447    -0.28400
C349        C  0.62289437  0.67855903  0.34134042    -0.04500
C350        C  0.60731789  0.69831037  0.34908171     0.07700
C351        C  0.59859611  0.67754714  0.36327168     0.01500
H352        H  0.63374863  0.68674896  0.33042917     0.09200
H353        H  0.58615731  0.68427760  0.37279613     0.08200
N354        N  0.66328667  0.56471410  0.35414880    -0.35600
N355        N  0.65941098  0.53827520  0.36616210    -0.27800
C356        C  0.67547115  0.51704416  0.36684531    -0.03000
C357        C  0.69027747  0.53075792  0.35482118     0.05600
C358        C  0.68203237  0.56094730  0.34702401     0.03700
H359        H  0.67656932  0.49436033  0.37629392     0.08800
H360        H  0.68941180  0.57956499  0.33746943     0.07600
N361        N  0.55482339  0.88150554  0.30092320    -0.26800
N362        N  0.56696210  0.85713649  0.29378593    -0.34600
C363        C  0.56491669  0.85598447  0.27404670     0.01600
C364        C  0.55067808  0.88029033  0.26846715     0.07600
C365        C  0.54464424  0.89615473  0.28586751    -0.05500
H366        H  0.57244477  0.83740784  0.26454696     0.08300
H367        H  0.53330356  0.91616689  0.28760286     0.09500
Cu368      Cu  0.58359713  0.82188079  0.31053456     0.44200
Cu369      Cu  0.55088331  0.89263393  0.33077365     0.42000
Cu370      Cu  0.57196573  0.82719381  0.36161985     0.43900
N371        N  0.59281433  0.78417561  0.33068795    -0.34200
N372        N  0.58759401  0.78627895  0.34944313    -0.28400
C373        C  0.59279668  0.75677106  0.35872070    -0.04500
C374        C  0.60191517  0.73488409  0.34527036     0.07700
C375        C  0.60183379  0.75303414  0.32757209     0.01500
H376        H  0.58946602  0.75116974  0.37401651     0.09200
H377        H  0.60659745  0.74338901  0.31331170     0.08200
N378        N  0.55680360  0.86968879  0.37256276    -0.35600
N379        N  0.54907426  0.89458689  0.36141391    -0.27800
C380        C  0.54073814  0.91897726  0.37321294    -0.03000
C381        C  0.54345864  0.90855435  0.39267450     0.05600
C382        C  0.55362132  0.87724241  0.39162727     0.03700
H383        H  0.53335946  0.94239264  0.36797447     0.08800
H384        H  0.55858021  0.86124759  0.40385925     0.07600
C385        C  0.52253564  0.97438950  0.43061086     0.19200
C386        C  0.50717314  0.99938626  0.43014875    -0.18900
C387        C  0.50036077  0.01500302  0.44755080    -0.11100
C388        C  0.50898727  0.00613173  0.46592062     0.21500
C389        C  0.52476822  0.98182212  0.46624591    -0.20500
C390        C  0.53155902  0.96623217  0.44884195    -0.11300
C391        C  0.50215274  0.02117250  0.48507618    -0.15500
C392        C  0.48762162  0.04535751  0.48682797    -0.29300
C393        C  0.52877221  0.95753795  0.41182937    -0.03600
C394        C  0.53747791  0.92589013  0.41119190    -0.40200
H395        H  0.50013487  0.00641956  0.41627238     0.12600
H396        H  0.48826919  0.03361057  0.44627696     0.12300
H397        H  0.53190831  0.97477789  0.48007053     0.11700
H398        H  0.54399074  0.94813852  0.44979400     0.11900
H399        H  0.50956337  0.01192464  0.49837652     0.14700
H400        H  0.47999686  0.05561795  0.47397251     0.13400
H401        H  0.52530517  0.97094964  0.39812428     0.11100
H402        H  0.54022016  0.91148497  0.42470351     0.13100
C403        C  0.50574881  0.47508679  0.47599126     0.19200
C404        C  0.52560584  0.46281564  0.47663229    -0.18900
C405        C  0.54053838  0.47833656  0.46512631    -0.11100
C406        C  0.53582477  0.50631158  0.45248485     0.21500
C407        C  0.51599599  0.51874358  0.45194714    -0.20500
C408        C  0.50106767  0.50322653  0.46344689    -0.11300
C409        C  0.55104296  0.52364710  0.43983980    -0.15500
C410        C  0.56852894  0.50883445  0.43437245    -0.29300
C411        C  0.49030916  0.45681513  0.48794877    -0.03600
C412        C  0.47252799  0.47096247  0.49298858    -0.40200
H413        H  0.52961263  0.44118063  0.48616211     0.12600
H414        H  0.55571042  0.46854517  0.46641371     0.12300
H415        H  0.51195369  0.54024544  0.44233164     0.11700
H416        H  0.48587993  0.51290809  0.46206499     0.11900
H417        H  0.54714656  0.54923939  0.43410943     0.14700
H418        H  0.57237518  0.48263759  0.43914746     0.13400
H419        H  0.49400944  0.43074682  0.49310384     0.11100
H420        H  0.46892425  0.49766178  0.48897366     0.13100
C421        C  0.49639467  0.08404270  0.68667296     0.19200
C422        C  0.48447664  0.08220515  0.70370064    -0.18900
C423        C  0.49328746  0.08232702  0.72247457    -0.11100
C424        C  0.51427549  0.08473803  0.72456619     0.21500
C425        C  0.52617202  0.08630030  0.70751306    -0.20500
C426        C  0.51737863  0.08577225  0.68875836    -0.11300
C427        C  0.52417284  0.08886804  0.74411597    -0.15500
C428        C  0.51611061  0.07808647  0.76125748    -0.29300
C429        C  0.48648669  0.08763819  0.66713425    -0.03600
C430        C  0.49499330  0.07744990  0.65006733    -0.40200
H431        H  0.46826069  0.08138676  0.70247100     0.12600
H432        H  0.48355756  0.08206908  0.73523419     0.12300
H433        H  0.54233883  0.08867460  0.70871461     0.11700
H434        H  0.52700060  0.08828082  0.67598938     0.11900
H435        H  0.53883990  0.10126440  0.74430421     0.14700
H436        H  0.50213573  0.06351532  0.76132599     0.13400
H437        H  0.47158964  0.09920112  0.66685198     0.11100
H438        H  0.50913463  0.06333674  0.65017849     0.13100
C439        C  0.49895155  0.00986258  0.94491699     0.19200
C440        C  0.47925252  0.99766734  0.94728753    -0.18900
C441        C  0.47316595  0.98263954  0.96510190    -0.11100
C442        C  0.48684425  0.97885059  0.98085138     0.21500
C443        C  0.50653159  0.99113136  0.97848830    -0.20500
C444        C  0.51260036  0.00625521  0.96068663    -0.11300
C445        C  0.48106376  0.96227718  0.99986068    -0.15500
C446        C  0.46661210  0.93787111  0.00100253    -0.29300
C447        C  0.50488803  0.02563896  0.92576089    -0.03600
C448        C  0.51917973  0.05031768  0.92435557    -0.40200
H449        H  0.46844605  0.00022536  0.93539209     0.12600
H450        H  0.45769023  0.97448079  0.96652416     0.12300
H451        H  0.51736340  0.98845147  0.99034939     0.11700
H452        H  0.52806601  0.01447113  0.95922505     0.11900
H453        H  0.48969220  0.96884560  0.01297812     0.14700
H454        H  0.45887568  0.92941602  0.98771434     0.13400
H455        H  0.49659539  0.01789843  0.91263480     0.11100
H456        H  0.52653779  0.05996723  0.93760178     0.13100
C457        C  0.51576154  0.90144129  0.22466602     0.19200
C458        C  0.49478732  0.90025351  0.22283309    -0.18900
C459        C  0.48570429  0.89982430  0.20420402    -0.11100
C460        C  0.49747134  0.90097123  0.18699021     0.21500
C461        C  0.51840591  0.90375157  0.18884895    -0.20500
C462        C  0.52750402  0.90376958  0.20748532    -0.11300
C463        C  0.48841348  0.89943295  0.16693777    -0.15500
C464        C  0.47126233  0.88210207  0.16308402    -0.29300
C465        C  0.52486386  0.90022612  0.24467736    -0.03600
C466        C  0.54269488  0.88497076  0.24828224    -0.40200
H467        H  0.48541533  0.89899204  0.23585827     0.12600
H468        H  0.46948515  0.89887145  0.20335621     0.12300
H469        H  0.52777154  0.90525055  0.17582962     0.11700
H470        H  0.54369015  0.90583397  0.20839919     0.11900
H471        H  0.49687796  0.91062451  0.15481625     0.14700
H472        H  0.46351516  0.86846945  0.17485407     0.13400
H473        H  0.51584914  0.90941916  0.25697030     0.11100
H474        H  0.55104134  0.87305314  0.23628828     0.13100
C475        C  0.51119363  0.48391843  0.93088332     0.19200
C476        C  0.49314284  0.46585014  0.93416603    -0.18900
C477        C  0.47792273  0.48031660  0.94576928    -0.11100
C478        C  0.48035951  0.51351640  0.95444781     0.21500
C479        C  0.49833849  0.53176701  0.95099348    -0.20500
C480        C  0.51357919  0.51727716  0.93936313    -0.11300
C481        C  0.46474326  0.53040802  0.96704101    -0.15500
C482        C  0.44726459  0.51543538  0.97247383    -0.29300
C483        C  0.52687466  0.46648566  0.91865899    -0.03600
C484        C  0.54569609  0.47845638  0.91574477    -0.40200
H485        H  0.49079999  0.44017788  0.92778122     0.12600
H486        H  0.46439683  0.46518382  0.94771427     0.12300
H487        H  0.50064904  0.55745873  0.95736316     0.11700
H488        H  0.52703773  0.53249013  0.93712492     0.11900
H489        H  0.46803508  0.55661418  0.97228075     0.14700
H490        H  0.44348584  0.48914392  0.96786355     0.13400
H491        H  0.52265144  0.44170969  0.91204438     0.11100
H492        H  0.55058150  0.50309066  0.92200796     0.13100
C493        C  0.73648116  0.43681841  0.85465531     0.19200
C494        C  0.75261396  0.41460972  0.85911468    -0.18900
C495        C  0.77230838  0.42740192  0.85951873    -0.11100
C496        C  0.77630015  0.46284264  0.85533764     0.21500
C497        C  0.76018752  0.48459510  0.85003009    -0.20500
C498        C  0.74050851  0.47182511  0.84972100    -0.11300
C499        C  0.79687023  0.47826565  0.85628660    -0.15500
C500        C  0.81238469  0.46325910  0.86582486    -0.29300
C501        C  0.71567570  0.42274011  0.85507336    -0.03600
C502        C  0.69979753  0.44253629  0.86014476    -0.40200
H503        H  0.74993535  0.38737967  0.86261233     0.12600
H504        H  0.78423071  0.40924108  0.86296740     0.12300
H505        H  0.76279479  0.51177312  0.84636209     0.11700
H506        H  0.72850396  0.48937693  0.84549190     0.11900
H507        H  0.79904104  0.50377164  0.84960601     0.14700
H508        H  0.81047826  0.43835363  0.87317473     0.13400
H509        H  0.71358122  0.39499474  0.85232589     0.11100
H510        H  0.70204572  0.46964959  0.86436504     0.13100
C511        C  0.27940012  0.46836902  0.05291514     0.19200
C512        C  0.27620927  0.43325694  0.04763584    -0.18900
C513        C  0.25691019  0.41882357  0.04783707    -0.11100
C514        C  0.24028543  0.43933851  0.05327022     0.21500
C515        C  0.24347767  0.47421831  0.05889797    -0.20500
C516        C  0.26279177  0.48861900  0.05881134    -0.11300
C517        C  0.21934201  0.42632385  0.05137949    -0.15500
C518        C  0.21427289  0.39236079  0.05261160    -0.29300
C519        C  0.29990920  0.48330539  0.05046279    -0.03600
C520        C  0.30596611  0.51425494  0.05792144    -0.40200
H521        H  0.28865085  0.41712548  0.04283495     0.12600
H522        H  0.25499991  0.39211281  0.04289020     0.12300
H523        H  0.23089098  0.49065256  0.06294630     0.11700
H524        H  0.26437545  0.51593516  0.06259546     0.11900
H525        H  0.20763496  0.44560483  0.04888956     0.14700
H526        H  0.22546258  0.37296979  0.05659479     0.13400
H527        H  0.31048702  0.46797555  0.04188770     0.11100
H528        H  0.29619343  0.52935177  0.06744633     0.13100
C529        C  0.03399406  0.41569730  0.95888047     0.19200
C530        C  0.01555230  0.39799148  0.95786388    -0.18900
C531        C  0.99842781  0.41445039  0.95037349    -0.11100
C532        C  0.99943144  0.44904655  0.94342296     0.21500
C533        C  0.01788037  0.46678041  0.94442996    -0.20500
C534        C  0.03501897  0.45031501  0.95196234    -0.11300
C535        C  0.98161708  0.46790123  0.93549739    -0.15500
C536        C  0.96480742  0.45201917  0.92893333    -0.29300
C537        C  0.05167016  0.39674947  0.96700972    -0.03600
C538        C  0.06833091  0.41238972  0.97410146    -0.40200
H539        H  0.01431254  0.37134920  0.96313833     0.12600
H540        H  0.98446446  0.40006332  0.95042655     0.12300
H541        H  0.01908869  0.49344902  0.93919485     0.11700
H542        H  0.04899612  0.46468051  0.95203209     0.11900
H543        H  0.98273638  0.49615263  0.93453600     0.14700
H544        H  0.96362380  0.42375973  0.92891191     0.13400
H545        H  0.05037126  0.36853385  0.96802778     0.11100
H546        H  0.06966276  0.44063771  0.97408395     0.13100
C547        C  0.03011979  0.94223534  0.97051619     0.19200
C548        C  0.02928453  0.95342291  0.95082438    -0.18900
C549        C  0.02131931  0.93182327  0.93611727    -0.11100
C550        C  0.01428284  0.89812878  0.94076577     0.21500
C551        C  0.01529721  0.88681036  0.96045197    -0.20500
C552        C  0.02321333  0.90848527  0.97518109    -0.11300
C553        C  0.00503921  0.87460093  0.92579207    -0.15500
C554        C  0.00749284  0.87822606  0.90617742    -0.29300
C555        C  0.03849434  0.96646255  0.98558402    -0.03600
C556        C  0.03404617  0.96475743  0.00492200    -0.40200
H557        H  0.03448819  0.97930441  0.94684555     0.12600
H558        H  0.02033965  0.94209588  0.92129805     0.12300
H559        H  0.00999192  0.86100325  0.96445294     0.11700
H560        H  0.02409379  0.89848805  0.99007947     0.11900
H561        H  0.99599575  0.85312088  0.93128008     0.14700
H562        H  0.01719770  0.89843035  0.90032154     0.13400
H563        H  0.04789212  0.98762862  0.98029081     0.11100
H564        H  0.02387055  0.94487988  0.01038049     0.13100
C565        C  0.77861026  0.45066842  0.36107901     0.19200
C566        C  0.77462274  0.48671030  0.36084440    -0.18900
C567        C  0.75487485  0.49909046  0.35974691    -0.11100
C568        C  0.73865723  0.47553930  0.35905895     0.21500
C569        C  0.74263471  0.43952975  0.35954673    -0.20500
C570        C  0.76236311  0.42715702  0.36047435    -0.11300
C571        C  0.71743399  0.48745220  0.35940366    -0.15500
C572        C  0.71127919  0.51876702  0.35266258    -0.29300
C573        C  0.79971897  0.43856518  0.36324820    -0.03600
C574        C  0.80606283  0.40680866  0.35736124    -0.40200
H575        H  0.78683478  0.50536469  0.36167185     0.12600
H576        H  0.75237969  0.52703597  0.36008703     0.12300
H577        H  0.73039708  0.42087049  0.35942053     0.11700
H578        H  0.76472799  0.39922391  0.36135370     0.11900
H579        H  0.70641612  0.46935832  0.36529420     0.14700
H580        H  0.72180121  0.53624007  0.34547571     0.13400
H581        H  0.81041094  0.45668874  0.36973870     0.11100
H582        H  0.79587733  0.38924862  0.34972160     0.13100
C583        C  0.99551669  0.10388722  0.22183031     0.19200
C584        C  0.98466230  0.10217760  0.20410415    -0.18900
C585        C  0.99467138  0.10161476  0.18599097    -0.11100
C586        C  0.01576139  0.10336005  0.18531862     0.21500
C587        C  0.02655830  0.10651402  0.20302628    -0.20500
C588        C  0.01656865  0.10648044  0.22114793    -0.11300
C589        C  0.02687059  0.10246794  0.16639305    -0.15500
C590        C  0.02051116  0.08375515  0.15078738    -0.29300
C591        C  0.98453063  0.10339694  0.24080995    -0.03600
C592        C  0.99185137  0.08717119  0.25684735    -0.40200
H593        H  0.96841834  0.10069024  0.20429723     0.12600
H594        H  0.98588036  0.10024479  0.17255632     0.12300
H595        H  0.04278712  0.10843306  0.20284077     0.11700
H596        H  0.02529910  0.10886312  0.23458132     0.11900
H597        H  0.04129990  0.11564425  0.16575948     0.14700
H598        H  0.00691499  0.06821475  0.15185970     0.13400
H599        H  0.96955883  0.11464341  0.24120320     0.11100
H600        H  0.00608800  0.07339236  0.25600908     0.13100
C601        C  0.99006423  0.95497995  0.43896155     0.19200
C602        C  0.99298746  0.96659794  0.45839854    -0.18900
C603        C  0.00135128  0.94448104  0.47261602    -0.11100
C604        C  0.00665276  0.90988816  0.46774497     0.21500
C605        C  0.00366730  0.89825240  0.44829921    -0.20500
C606        C  0.99535768  0.92042408  0.43406289    -0.11300
C607        C  0.01577902  0.88552170  0.48231773    -0.15500
C608        C  0.01366355  0.88908866  0.50196719    -0.29300
C609        C  0.98116760  0.97941958  0.42434615    -0.03600
C610        C  0.98466344  0.97716073  0.40484714    -0.40200
H611        H  0.98907357  0.99311010  0.46252792     0.12600
H612        H  0.00394456  0.95491127  0.48724099     0.12300
H613        H  0.00760257  0.87176252  0.44414784     0.11700
H614        H  0.99282740  0.91019392  0.41937143     0.11900
H615        H  0.02400759  0.86323781  0.47656276     0.14700
H616        H  0.00459553  0.91008257  0.50797955     0.13400
H617        H  0.97228642  0.00102248  0.42999502     0.11100
H618        H  0.99459654  0.95709445  0.39912068     0.13100
C619        C  0.99965417  0.82235932  0.72362301     0.19200
C620        C  0.02001738  0.82566983  0.71871509    -0.18900
C621        C  0.02606486  0.82612687  0.69899254    -0.11100
C622        C  0.01178201  0.82359417  0.68374723     0.21500
C623        C  0.99134673  0.82171854  0.68862057    -0.20500
C624        C  0.98530179  0.82089275  0.70837089    -0.11300
C625        C  0.01772463  0.82327810  0.66267370    -0.15500
C626        C  0.03510542  0.80921441  0.65643579    -0.29300
C627        C  0.99401597  0.82131928  0.74477815    -0.03600
C628        C  0.97740589  0.80529785  0.75149416    -0.40200
H629        H  0.03131789  0.82748478  0.73019497     0.12600
H630        H  0.04189258  0.82883449  0.69573767     0.12300
H631        H  0.98005774  0.82036663  0.67711071     0.11700
H632        H  0.96941704  0.81956268  0.71160137     0.11900
H633        H  0.00690677  0.83277579  0.65193487     0.14700
H634        H  0.04529322  0.79715187  0.66693448     0.13400
H635        H  0.00460062  0.83240692  0.75525750     0.11100
H636        H  0.96734435  0.79205332  0.74132809     0.13100
C637        C  0.24270766  0.47524382  0.55454489     0.19200
C638        C  0.25898213  0.49853080  0.55402123    -0.18900
C639        C  0.27873867  0.48624105  0.55491797    -0.11100
C640        C  0.28268481  0.45016366  0.55637527     0.21500
C641        C  0.26640439  0.42695352  0.55749151    -0.20500
C642        C  0.24663812  0.43924940  0.55658042    -0.11300
C643        C  0.30344002  0.43575122  0.55717820    -0.15500
C644        C  0.31963386  0.45293530  0.55037220    -0.29300
C645        C  0.22197826  0.48967902  0.55326511    -0.03600
C646        C  0.20592301  0.47081169  0.54753552    -0.40200
H647        H  0.25640541  0.52641446  0.55279416     0.12600
H648        H  0.29076368  0.50521786  0.55475276     0.12300
H649        H  0.26898753  0.39911006  0.55896109     0.11700
H650        H  0.23458072  0.42045184  0.55775570     0.11900
H651        H  0.30526266  0.40937470  0.56280608     0.14700
H652        H  0.31801145  0.47859094  0.54377717     0.13400
H653        H  0.22011420  0.51741012  0.55618060     0.11100
H654        H  0.20762169  0.44351964  0.54352277     0.13100
C655        C  0.98291268  0.41676000  0.45624115     0.19200
C656        C  0.99647009  0.39755275  0.46786022    -0.18900
C657        C  0.01364807  0.41336120  0.47574223    -0.11100
C658        C  0.01770111  0.44882217  0.47199702     0.21500
C659        C  0.00400259  0.46814797  0.46066016    -0.20500
C660        C  0.98689971  0.45235887  0.45272910    -0.11300
C661        C  0.03572257  0.46705613  0.47978993    -0.15500
C662        C  0.05252244  0.45087809  0.48606203    -0.29300
C663        C  0.96546104  0.39823050  0.44732946    -0.03600
C664        C  0.94966345  0.41448429  0.43896735    -0.40200
H665        H  0.99378167  0.37012746  0.47082809     0.12600
H666        H  0.02350234  0.39774517  0.48486178     0.12300
H667        H  0.00673476  0.49553627  0.45759854     0.11700
H668        H  0.97725762  0.46814405  0.44351268     0.11900
H669        H  0.03520507  0.49540327  0.47976061     0.14700
H670        H  0.05369208  0.42261428  0.48577795     0.13400
H671        H  0.96579312  0.36986615  0.44758701     0.11100
H672        H  0.94847438  0.44271671  0.43915979     0.13100
loop_ 
_geom_bond_atom_site_label_1 
_geom_bond_atom_site_label_2 
_geom_bond_distance 
_geom_bond_site_symmetry_2 
_ccdc_geom_bond_type 
N1            N2   1.320       .  A
N1            C5   1.347       .  A
N1           Cu9   2.076       .  S
N2            C3   1.340       .  A
N2           Cu8   2.056       .  S
C3            C4   1.384       .  A
C3            H6   1.081       .  S
C4            C5   1.386       .  A
C4          C662   1.478       .  S
C5            H7   1.082       .  S
Cu8          N11   2.056       .  S
Cu9          N19   2.077       .  S
Cu10         N12   2.086       .  S
Cu10         N18   2.088       .  S
N11          N12   1.321       .  A
N11          C15   1.341       .  A
N12          C13   1.349       .  A
C13          C14   1.387       .  A
C13          H16   1.082       .  S
C14          C15   1.379       .  A
C14          C38   1.470       .  S
C15          H17   1.082       .  S
N18          N19   1.324       .  A
N18          C22   1.347       .  A
N19          C20   1.345       .  A
C20          C21   1.381       .  A
C20          H23   1.082       .  S
C21          C22   1.387       .  A
C21         C646   1.480       .  S
C22          H24   1.081       .  S
N25          N26   1.323       .  A
N25          C29   1.344       .  A
N25         Cu33   2.070       .  S
N26          C27   1.345       .  A
N26         Cu32   2.077       .  S
C27          C28   1.382       .  A
C27          H30   1.082       .  S
C28          C29   1.384       .  A
C28         C626   1.475       .  S
C29          H31   1.081       .  S
Cu32         N35   2.077       .  S
Cu33         N43   2.069       .  S
Cu34         N36   2.075       .  S
Cu34         N42   2.074       .  S
N35          N36   1.323       .  A
N35          C39   1.348       .  A
N36          C37   1.343       .  A
C37          C38   1.382       .  A
C37          H40   1.082       .  S
C38          C39   1.383       .  A
C39          H41   1.082       .  S
N42          N43   1.321       .  A
N42          C46   1.346       .  A
N43          C44   1.344       .  A
C44          C45   1.382       .  A
C44          H47   1.082       .  S
C45          C46   1.387       .  A
C45         C608   1.478       .  S
C46          H48   1.081       .  S
N49          N50   1.322       .  A
N49          C53   1.343       .  A
N49         Cu57   2.066       .  S
N50          C51   1.346       .  A
N50         Cu56   2.078       .  S
C51          C52   1.386       .  A
C51          H54   1.082       .  S
C52          C53   1.379       .  A
C52         C592   1.474       .  S
C53          H55   1.082       .  S
Cu56         N59   2.077       .  S
Cu57         N67   2.066       .  S
Cu58         N60   2.076       .  S
Cu58         N66   2.075       .  S
N59          N60   1.323       .  A
N59          C63   1.346       .  A
N60          C61   1.344       .  A
C61          C62   1.382       .  A
C61          H64   1.082       .  S
C62          C63   1.382       .  A
C62          C86   1.468       .  S
C63          H65   1.082       .  S
N66          N67   1.321       .  A
N66          C70   1.346       .  A
N67          C68   1.344       .  A
C68          C69   1.381       .  A
C68          H71   1.082   1_545  S
C69          C70   1.387       .  A
C69         C610   1.477   1_545  S
C70          H72   1.081       .  S
N73          N74   1.321       .  A
N73          C77   1.344       .  A
N73         Cu81   2.071       .  S
N74          C75   1.344       .  A
N74         Cu80   2.067       .  S
C75          C76   1.386       .  A
C75          H78   1.081       .  S
C76          C77   1.382       .  A
C76         C664   1.476       .  S
C77          H79   1.082       .  S
Cu80         N83   2.066       .  S
Cu81         N91   2.072       .  S
Cu82         N84   2.079       .  S
Cu82         N90   2.080       .  S
N83          N84   1.322       .  A
N83          C87   1.343       .  A
N84          C85   1.347       .  A
C85          C86   1.384       .  A
C85          H88   1.082       .  S
C86          C87   1.380       .  A
C87          H89   1.082       .  S
N90          N91   1.323       .  A
N90          C94   1.345       .  A
N91          C92   1.345       .  A
C92          C93   1.386       .  A
C92          H95   1.081       .  S
C93          C94   1.383       .  A
C93         C574   1.478       .  S
C94          H96   1.082       .  S
N97          N98   1.322       .  A
N97         C101   1.344       .  A
N97        Cu105   2.069       .  S
N98          C99   1.346       .  A
N98        Cu104   2.077       .  S
C99         C100   1.386       .  A
C99         H102   1.082       .  S
C100        C101   1.380       .  A
C100        C590   1.475       .  S
C101        H103   1.082       .  S
Cu104       N107   2.076       .  S
Cu105       N115   2.069       .  S
Cu106       N108   2.073       .  S
Cu106       N114   2.072       .  S
N107        N108   1.323       .  A
N107        C111   1.346       .  A
N108        C109   1.344       .  A
C109        C110   1.381       .  A
C109        H112   1.082       .  S
C110        C111   1.382       .  A
C110        C134   1.467       .  S
C111        H113   1.082       .  S
N114        N115   1.321       .  A
N114        C118   1.344       .  A
N115        C116   1.345   1_545  A
C116        C117   1.382       .  A
C116        H119   1.082       .  S
C117        C118   1.387   1_565  A
C117        C556   1.478       .  S
C118        H120   1.081       .  S
N121        N122   1.322   1_554  A
N121        C125   1.347   1_554  A
N121       Cu129   2.083       .  S
N122        C123   1.343       .  A
N122       Cu128   2.067   1_556  S
C123        C124   1.385       .  A
C123        H126   1.081       .  S
C124        C125   1.386       .  A
C124        C538   1.481       .  S
C125        H127   1.082       .  S
Cu128       N131   2.067       .  S
Cu129       N139   2.083       .  S
Cu130       N132   2.075       .  S
Cu130       N138   2.076       .  S
N131        N132   1.322       .  A
N131        C135   1.344       .  A
N132        C133   1.347       .  A
C133        C134   1.383       .  A
C133        H136   1.082       .  S
C134        C135   1.381       .  A
C135        H137   1.082       .  S
N138        N139   1.323       .  A
N138        C142   1.346       .  A
N139        C140   1.346       .  A
C140        C141   1.387       .  A
C140        H143   1.082       .  S
C141        C142   1.382       .  A
C141        C518   1.479       .  S
C142        H144   1.082       .  S
N145        N146   1.320       .  A
N145        C149   1.346       .  A
N145       Cu153   2.075       .  S
N146        C147   1.343       .  A
N146       Cu152   2.059       .  S
C147        C148   1.385       .  A
C147        H150   1.081       .  S
C148        C149   1.386       .  A
C148        C536   1.479       .  S
C149        H151   1.082       .  S
Cu152       N155   2.059       .  S
Cu153       N163   2.077       .  S
Cu154       N156   2.089       .  S
Cu154       N162   2.091       .  S
N155        N156   1.322       .  A
N155        C159   1.340       .  A
N156        C157   1.350       .  A
C157        C158   1.387       .  A
C157        H160   1.082       .  S
C158        C159   1.378       .  A
C158        C182   1.470       .  S
C159        H161   1.082       .  S
N162        N163   1.324       .  A
N162        C166   1.349       .  A
N163        C164   1.343       .  A
C164        C165   1.380       .  A
C164        H167   1.082       .  S
C165        C166   1.389       .  A
C165        C500   1.480       .  S
C166        H168   1.081       .  S
N169        N170   1.323       .  A
N169        C173   1.344       .  A
N169       Cu177   2.072       .  S
N170        C171   1.345       .  A
N170       Cu176   2.076       .  S
C171        C172   1.382       .  A
C171        H174   1.082       .  S
C172        C173   1.385       .  A
C172        C628   1.477       .  S
C173        H175   1.081       .  S
Cu176       N179   2.075       .  S
Cu177       N187   2.071       .  S
Cu178       N180   2.071       .  S
Cu178       N186   2.070       .  S
N179        N180   1.322       .  A
N179        C183   1.348       .  A
N180        C181   1.342       .  A
C181        C182   1.382       .  A
C181        H184   1.082       .  S
C182        C183   1.384       .  A
C183        H185   1.082       .  S
N186        N187   1.321       .  A
N186        C190   1.344       .  A
N187        C188   1.345       .  A
C188        C189   1.383       .  A
C188        H191   1.082   1_655  S
C189        C190   1.386       .  A
C189        C554   1.478   1_655  S
C190        H192   1.081       .  S
N193        N194   1.320       .  A
N193        C197   1.347   1_554  A
N193       Cu201   2.078       .  S
N194        C195   1.344   1_554  A
N194       Cu200   2.066       .  S
C195        C196   1.386       .  A
C195        H198   1.081       .  S
C196        C197   1.386       .  A
C196        C482   1.481       .  S
C197        H199   1.082       .  S
Cu200       N203   2.066       .  S
Cu201       N211   2.079       .  S
Cu202       N204   2.082       .  S
Cu202       N210   2.084       .  S
N203        N204   1.323       .  A
N203        C207   1.341       .  A
N204        C205   1.350       .  A
C205        C206   1.385       .  A
C205        H208   1.082       .  S
C206        C207   1.379       .  A
C206        C230   1.468       .  S
C207        H209   1.082       .  S
N210        N211   1.324       .  A
N210        C214   1.347       .  A
N211        C212   1.344       .  A
C212        C213   1.386       .  A
C212        H215   1.081       .  S
C213        C214   1.384       .  A
C213        C520   1.481       .  S
C214        H216   1.082       .  S
N217        N218   1.326       .  A
N217        C221   1.347       .  A
N217       Cu225   2.088       .  S
N218        C219   1.344       .  A
N218       Cu224   2.081       .  S
C219        C220   1.380       .  A
C219        H222   1.082       .  S
C220        C221   1.386       .  A
C220        C464   1.478       .  S
C221        H223   1.082       .  S
Cu224       N227   2.079       .  S
Cu225       N235   2.086       .  S
Cu226       N228   2.056       .  S
Cu226       N234   2.056       .  S
N227        N228   1.320       .  A
N227        C231   1.350       .  A
N228        C229   1.340       .  A
C229        C230   1.379       .  A
C229        H232   1.082       .  S
C230        C231   1.386       .  A
C231        H233   1.082       .  S
N234        N235   1.321       .  A
N234        C238   1.340       .  A
N235        C236   1.350       .  A
C236        C237   1.390       .  A
C236        H239   1.082       .  S
C237        C238   1.377       .  A
C237        C446   1.476       .  S
C238        H240   1.082       .  S
N241        N242   1.324       .  A
N241        C245   1.346       .  A
N241       Cu249   2.083       .  S
N242        C243   1.344       .  A
N242       Cu248   2.077       .  S
C243        C244   1.385       .  A
C243        H246   1.081       .  S
C244        C245   1.383       .  A
C244        C428   1.480       .  S
C245        H247   1.082       .  S
Cu248       N251   2.075       .  S
Cu249       N259   2.082       .  S
Cu250       N252   2.067       .  S
Cu250       N258   2.067       .  S
N251        N252   1.322       .  A
N251        C255   1.348       .  A
N252        C253   1.342       .  A
C253        C254   1.380       .  A
C253        H256   1.082       .  S
C254        C255   1.384       .  A
C254        C278   1.465       .  S
C255        H257   1.082       .  S
N258        N259   1.321       .  A
N258        C262   1.343       .  A
N259        C260   1.348       .  A
C260        C261   1.388       .  A
C260        H263   1.081       .  S
C261        C262   1.380       .  A
C261        C448   1.477       .  S
C262        H264   1.082       .  S
N265        N266   1.320       .  A
N265        C269   1.348       .  A
N265       Cu273   2.082       .  S
N266        C267   1.341       .  A
N266       Cu272   2.059       .  S
C267        C268   1.386       .  A
C267        H270   1.081       .  S
C268        C269   1.388       .  A
C268        C484   1.483       .  S
C269        H271   1.082       .  S
Cu272       N275   2.060       .  S
Cu273       N283   2.083       .  S
Cu274       N276   2.083       .  S
Cu274       N282   2.085       .  S
N275        N276   1.322       .  A
N275        C279   1.340       .  A
N276        C277   1.349       .  A
C277        C278   1.385       .  A
C277        H280   1.082       .  S
C278        C279   1.378       .  A
C279        H281   1.082       .  S
N282        N283   1.325       .  A
N282        C286   1.348       .  A
N283        C284   1.344       .  A
C284        C285   1.381       .  A
C284        H287   1.082       .  S
C285        C286   1.386       .  A
C285        C502   1.478       .  S
C286        H288   1.082       .  S
N289        N290   1.320       .  A
N289        C293   1.346       .  A
N289       Cu297   2.072       .  S
N290        C291   1.343       .  A
N290       Cu296   2.062       .  S
C291        C292   1.386       .  A
C291        H294   1.081       .  S
C292        C293   1.384       .  A
C292        C412   1.478       .  S
C293        H295   1.082       .  S
Cu296       N299   2.062       .  S
Cu297       N307   2.073       .  S
Cu298       N300   2.081       .  S
Cu298       N306   2.083       .  S
N299        N300   1.323       .  A
N299        C303   1.341       .  A
N300        C301   1.349       .  A
C301        C302   1.384       .  A
C301        H304   1.082       .  S
C302        C303   1.377       .  A
C302        C326   1.464       .  S
C303        H305   1.082       .  S
N306        N307   1.324       .  A
N306        C310   1.347       .  A
N307        C308   1.343       .  A
C308        C309   1.380       .  A
C308        H311   1.082       .  S
C309        C310   1.387       .  A
C309        C644   1.478       .  S
C310        H312   1.081       .  S
N313        N314   1.324       .  A
N313        C317   1.347       .  A
N313       Cu321   2.084       .  S
N314        C315   1.344       .  A
N314       Cu320   2.078       .  S
C315        C316   1.384       .  A
C315        H318   1.082       .  S
C316        C317   1.383       .  A
C316        C430   1.478       .  S
C317        H319   1.082       .  S
Cu320       N323   2.077       .  S
Cu321       N331   2.083       .  S
Cu322       N324   2.056       .  S
Cu322       N330   2.056       .  S
N323        N324   1.320       .  A
N323        C327   1.348       .  A
N324        C325   1.341       .  A
C325        C326   1.379       .  A
C325        H328   1.082       .  S
C326        C327   1.385       .  A
C327        H329   1.082       .  S
N330        N331   1.321       .  A
N330        C334   1.341       .  A
N331        C332   1.348       .  A
C332        C333   1.389       .  A
C332        H335   1.081       .  S
C333        C334   1.377       .  A
C333        C392   1.475       .  S
C334        H336   1.082       .  S
N337        N338   1.319       .  A
N337        C341   1.347       .  A
N337       Cu345   2.076       .  S
N338        C339   1.341       .  A
N338       Cu344   2.054       .  S
C339        C340   1.385       .  A
C339        H342   1.081       .  S
C340        C341   1.386       .  A
C340        C410   1.479       .  S
C341        H343   1.082       .  S
Cu344       N347   2.054       .  S
Cu345       N355   2.077       .  S
Cu346       N348   2.085       .  S
Cu346       N354   2.087       .  S
N347        N348   1.322       .  A
N347        C351   1.338       .  A
N348        C349   1.351       .  A
C349        C350   1.387       .  A
C349        H352   1.082       .  S
C350        C351   1.377       .  A
C350        C374   1.467       .  S
C351        H353   1.082       .  S
N354        N355   1.325       .  A
N354        C358   1.347       .  A
N355        C356   1.344       .  A
C356        C357   1.384       .  A
C356        H359   1.081       .  S
C357        C358   1.384       .  A
C357        C572   1.479       .  S
C358        H360   1.082       .  S
N361        N362   1.325       .  A
N361        C365   1.346       .  A
N361       Cu369   2.083       .  S
N362        C363   1.345       .  A
N362       Cu368   2.081       .  S
C363        C364   1.380       .  A
C363        H366   1.082       .  S
C364        C365   1.385       .  A
C364        C466   1.477       .  S
C365        H367   1.082       .  S
Cu368       N371   2.079       .  S
Cu369       N379   2.081       .  S
Cu370       N372   2.052       .  S
Cu370       N378   2.052       .  S
N371        N372   1.320       .  A
N371        C375   1.350       .  A
N372        C373   1.338       .  A
C373        C374   1.378       .  A
C373        H376   1.082       .  S
C374        C375   1.386       .  A
C375        H377   1.082       .  S
N378        N379   1.320       .  A
N378        C382   1.340       .  A
N379        C380   1.348       .  A
C380        C381   1.389       .  A
C380        H383   1.081       .  S
C381        C382   1.377       .  A
C381        C394   1.474       .  S
C382        H384   1.082       .  S
C385        C386   1.401       .  A
C385        C390   1.408       .  A
C385        C393   1.485       .  S
C386        C387   1.397   1_565  A
C386        H395   1.084   1_565  S
C387        C388   1.411       .  A
C387        H396   1.078       .  S
C388        C389   1.403   1_545  A
C388        C391   1.491       .  S
C389        C390   1.397       .  A
C389        H397   1.084       .  S
C390        H398   1.081       .  S
C391        H399   1.086       .  S
C391        C392   1.344       .  D
C392        H400   1.081       .  S
C393        H401   1.086       .  S
C393        C394   1.343       .  D
C394        H402   1.084       .  S
C403        C404   1.404       .  A
C403        C408   1.407       .  A
C403        C411   1.486       .  S
C404        C405   1.398       .  A
C404        H413   1.083       .  S
C405        C406   1.407       .  A
C405        H414   1.081       .  S
C406        C407   1.404       .  A
C406        C409   1.485       .  S
C407        C408   1.397       .  A
C407        H415   1.084       .  S
C408        H416   1.081       .  S
C409        H417   1.085       .  S
C409        C410   1.347       .  D
C410        H418   1.084       .  S
C411        H419   1.085       .  S
C411        C412   1.346       .  D
C412        H420   1.084       .  S
C421        C422   1.404       .  A
C421        C426   1.406       .  A
C421        C429   1.484       .  S
C422        C423   1.400       .  A
C422        H431   1.083       .  S
C423        C424   1.408       .  A
C423        H432   1.082       .  S
C424        C425   1.404       .  A
C424        C427   1.486       .  S
C425        C426   1.398       .  A
C425        H433   1.083       .  S
C426        H434   1.082       .  S
C427        H435   1.086       .  S
C427        C428   1.346       .  D
C428        H436   1.085       .  S
C429        H437   1.086       .  S
C429        C430   1.346       .  D
C430        H438   1.085       .  S
C439        C440   1.402   1_545  A
C439        C444   1.408       .  A
C439        C447   1.486       .  S
C440        C441   1.398       .  A
C440        H449   1.084   1_565  S
C441        C442   1.409       .  A
C441        H450   1.081       .  S
C442        C443   1.402       .  A
C442        C445   1.488       .  S
C443        C444   1.399   1_565  A
C443        H451   1.084       .  S
C444        H452   1.082       .  S
C445        H453   1.086   1_556  S
C445        C446   1.343   1_556  D
C446        H454   1.085   1_554  S
C447        H455   1.086       .  S
C447        C448   1.344       .  D
C448        H456   1.086       .  S
C457        C458   1.403       .  A
C457        C462   1.407       .  A
C457        C465   1.485       .  S
C458        C459   1.398       .  A
C458        H467   1.083       .  S
C459        C460   1.407       .  A
C459        H468   1.082       .  S
C460        C461   1.404       .  A
C460        C463   1.486       .  S
C461        C462   1.399       .  A
C461        H469   1.083       .  S
C462        H470   1.082       .  S
C463        H471   1.086       .  S
C463        C464   1.346       .  D
C464        H472   1.085       .  S
C465        H473   1.086       .  S
C465        C466   1.345       .  D
C466        H474   1.085       .  S
C475        C476   1.405       .  A
C475        C480   1.407       .  A
C475        C483   1.491       .  S
C476        C477   1.398       .  A
C476        H485   1.083       .  S
C477        C478   1.408       .  A
C477        H486   1.079       .  S
C478        C479   1.406       .  A
C478        C481   1.493       .  S
C479        C480   1.400       .  A
C479        H487   1.083       .  S
C480        H488   1.080       .  S
C481        H489   1.085       .  S
C481        C482   1.349       .  D
C482        H490   1.082       .  S
C483        H491   1.084       .  S
C483        C484   1.350       .  D
C484        H492   1.082       .  S
C493        C494   1.402       .  A
C493        C498   1.406       .  A
C493        C501   1.487       .  S
C494        C495   1.400       .  A
C494        H503   1.083       .  S
C495        C496   1.411       .  A
C495        H504   1.080       .  S
C496        C497   1.404       .  A
C496        C499   1.493       .  S
C497        C498   1.399       .  A
C497        H505   1.083       .  S
C498        H506   1.082       .  S
C499        H507   1.086       .  S
C499        C500   1.346       .  D
C500        H508   1.083       .  S
C501        H509   1.086       .  S
C501        C502   1.345       .  D
C502        H510   1.086       .  S
C511        C512   1.405       .  A
C511        C516   1.408       .  A
C511        C519   1.490       .  S
C512        C513   1.399       .  A
C512        H521   1.083       .  S
C513        C514   1.406       .  A
C513        H522   1.082       .  S
C514        C515   1.403       .  A
C514        C517   1.486       .  S
C515        C516   1.399       .  A
C515        H523   1.083       .  S
C516        H524   1.080       .  S
C517        H525   1.086       .  S
C517        C518   1.345       .  D
C518        H526   1.085       .  S
C519        H527   1.085       .  S
C519        C520   1.348       .  D
C520        H528   1.084       .  S
C529        C530   1.404       .  A
C529        C534   1.407       .  A
C529        C537   1.487       .  S
C530        C531   1.397   1_455  A
C530        H539   1.084       .  S
C531        C532   1.407       .  A
C531        H540   1.081       .  S
C532        C533   1.405   1_655  A
C532        C535   1.488       .  S
C533        C534   1.399       .  A
C533        H541   1.083       .  S
C534        H542   1.081       .  S
C535        H543   1.085       .  S
C535        C536   1.348       .  D
C536        H544   1.084       .  S
C537        H545   1.085       .  S
C537        C538   1.348       .  D
C538        H546   1.084       .  S
C547        C548   1.403       .  A
C547        C552   1.407       .  A
C547        C555   1.485       .  S
C548        C549   1.397       .  A
C548        H557   1.083       .  S
C549        C550   1.408       .  A
C549        H558   1.081       .  S
C550        C551   1.404       .  A
C550        C553   1.487       .  S
C551        C552   1.399       .  A
C551        H559   1.083       .  S
C552        H560   1.081       .  S
C553        H561   1.085   1_455  S
C553        C554   1.347       .  D
C554        H562   1.084       .  S
C555        H563   1.085       .  S
C555        C556   1.346   1_556  D
C556        H564   1.084       .  S
C565        C566   1.404       .  A
C565        C570   1.407       .  A
C565        C573   1.487       .  S
C566        C567   1.400       .  A
C566        H575   1.083       .  S
C567        C568   1.407       .  A
C567        H576   1.082       .  S
C568        C569   1.403       .  A
C568        C571   1.485       .  S
C569        C570   1.398       .  A
C569        H577   1.083       .  S
C570        H578   1.082       .  S
C571        H579   1.086       .  S
C571        C572   1.346       .  D
C572        H580   1.085       .  S
C573        H581   1.086       .  S
C573        C574   1.346       .  D
C574        H582   1.085       .  S
C583        C584   1.402       .  A
C583        C588   1.406   1_655  A
C583        C591   1.481       .  S
C584        C585   1.398       .  A
C584        H593   1.083       .  S
C585        C586   1.407   1_655  A
C585        H594   1.082       .  S
C586        C587   1.402       .  A
C586        C589   1.482       .  S
C587        C588   1.398       .  A
C587        H595   1.083       .  S
C588        H596   1.083       .  S
C589        H597   1.086       .  S
C589        C590   1.344       .  D
C590        H598   1.086       .  S
C591        H599   1.086       .  S
C591        C592   1.343       .  D
C592        H600   1.086   1_655  S
C601        C602   1.402       .  A
C601        C606   1.407       .  A
C601        C609   1.485       .  S
C602        C603   1.398   1_655  A
C602        H611   1.083       .  S
C603        C604   1.408       .  A
C603        H612   1.081       .  S
C604        C605   1.404       .  A
C604        C607   1.488       .  S
C605        C606   1.398   1_455  A
C605        H613   1.083       .  S
C606        H614   1.082       .  S
C607        H615   1.086       .  S
C607        C608   1.346       .  D
C608        H616   1.084       .  S
C609        H617   1.086   1_565  S
C609        C610   1.345       .  D
C610        H618   1.085       .  S
C619        C620   1.403   1_655  A
C619        C624   1.407       .  A
C619        C627   1.483       .  S
C620        C621   1.397       .  A
C620        H629   1.083       .  S
C621        C622   1.406       .  A
C621        H630   1.082       .  S
C622        C623   1.403   1_455  A
C622        C625   1.482       .  S
C623        C624   1.399       .  A
C623        H631   1.083       .  S
C624        H632   1.082       .  S
C625        H633   1.086       .  S
C625        C626   1.345       .  D
C626        H634   1.085       .  S
C627        H635   1.085   1_655  S
C627        C628   1.345       .  D
C628        H636   1.085       .  S
C637        C638   1.403       .  A
C637        C642   1.408       .  A
C637        C645   1.489       .  S
C638        C639   1.398       .  A
C638        H647   1.083       .  S
C639        C640   1.408       .  A
C639        H648   1.081       .  S
C640        C641   1.404       .  A
C640        C643   1.489       .  S
C641        C642   1.399       .  A
C641        H649   1.083       .  S
C642        H650   1.081       .  S
C643        H651   1.086       .  S
C643        C644   1.346       .  D
C644        H652   1.084       .  S
C645        H653   1.086       .  S
C645        C646   1.346       .  D
C646        H654   1.084       .  S
C655        C656   1.405       .  A
C655        C660   1.408       .  A
C655        C663   1.488       .  S
C656        C657   1.398   1_655  A
C656        H665   1.083       .  S
C657        C658   1.406       .  A
C657        H666   1.081       .  S
C658        C659   1.403       .  A
C658        C661   1.484       .  S
C659        C660   1.395   1_455  A
C659        H667   1.084       .  S
C660        H668   1.080       .  S
C661        H669   1.085       .  S
C661        C662   1.347       .  D
C662        H670   1.084       .  S
C663        H671   1.085       .  S
C663        C664   1.346       .  D
C664        H672   1.083       .  S
