geometry optimzed in LAMMPS
_audit_creation_date              2020-11-30 
_audit_creation_method            'lammps2cif' 
_symmetry_space_group_name_H-M    'P1' 
_symmetry_Int_Tables_number       1 
_symmetry_cell_setting            triclinic 
loop_ 
_symmetry_equiv_pos_as_xyz 
  x,y,z 
_cell_length_a                    32.41655533 
_cell_length_b                    61.75083092969528 
_cell_length_c                    28.370148150482976 
_cell_angle_alpha                 90.3496606342506 
_cell_angle_beta                  88.62634060120628 
_cell_angle_gamma                 90.15678019715705 
loop_ 
_atom_site_label 
_atom_site_type_symbol 
_atom_site_fract_x 
_atom_site_fract_y 
_atom_site_fract_z 
_atom_site_charge 
C1          C  0.15999924  0.57915636  0.14335454     0.86700
C2          C  0.17312333  0.56372675  0.10205166    -0.53600
C3          C  0.15524895  0.54356107  0.10319374     0.09600
C4          C  0.12586014  0.54075326  0.14638612     0.20500
C5          C  0.11311835  0.57936981  0.14019186    -0.54300
C6          C  0.09531311  0.55953723  0.14114151     0.09700
C7          C  0.16922853  0.56642554  0.18817111    -0.53800
C8          C  0.15167735  0.54620185  0.19006759     0.10300
H9          H  0.18965592  0.56912447  0.07088370     0.14800
H10         H  0.11015059  0.52487524  0.14891831     0.00500
H11         H  0.09537890  0.59403371  0.13496538     0.15100
H12         H  0.18811112  0.57296068  0.21599478     0.14900
C13         C  0.16478458  0.45446890  0.39238370     0.86700
C14         C  0.17030577  0.46767560  0.43828297    -0.53600
C15         C  0.14856651  0.48650952  0.43987538     0.09600
C16         C  0.12381821  0.49093146  0.39563332     0.20500
C17         C  0.11800229  0.45185584  0.38806524    -0.54300
C18         C  0.09646105  0.47065000  0.39021059     0.09700
C19         C  0.17774809  0.47066010  0.35378233    -0.53800
C20         C  0.15589536  0.48974894  0.35459378     0.10300
H21         H  0.19038687  0.46342261  0.46678527     0.14800
H22         H  0.10596929  0.50620023  0.39744257     0.00500
H23         H  0.10335744  0.43628011  0.38220233     0.15100
H24         H  0.20147452  0.46710200  0.32729495     0.14900
C25         C  0.85294362  0.45582282  0.35876218     0.86700
C26         C  0.84166708  0.47000415  0.31710683    -0.53600
C27         C  0.86226028  0.48948716  0.31523349     0.09600
C28         C  0.89208431  0.49305151  0.35621373     0.20500
C29         C  0.90000541  0.45405687  0.35555720    -0.54300
C30         C  0.92091482  0.47326022  0.35504764     0.09700
C31         C  0.84446870  0.47069336  0.40221928    -0.53800
C32         C  0.86468432  0.49004223  0.40080493     0.10300
H33         H  0.81962073  0.46494716  0.29101508     0.14800
H34         H  0.90906044  0.50861777  0.35540104     0.00500
H35         H  0.91568708  0.43852724  0.35620900     0.15100
H36         H  0.82549830  0.46667594  0.43286090     0.14900
C37         C  0.85562984  0.57906309  0.11053380     0.86700
C38         C  0.83877740  0.56400441  0.14936788    -0.53600
C39         C  0.85784238  0.54417847  0.15064671     0.09600
C40         C  0.89158998  0.54109378  0.11205750     0.20500
C41         C  0.90234090  0.57990254  0.11774365    -0.54300
C42         C  0.92069823  0.56017807  0.11941528     0.09700
C43         C  0.85121140  0.56549170  0.06478238    -0.53800
C44         C  0.87077506  0.54594252  0.06527844     0.10300
H45         H  0.81556334  0.56904887  0.17533397     0.14800
H46         H  0.90761860  0.52527515  0.11264559     0.00500
H47         H  0.91966567  0.59491206  0.12093252     0.15100
H48         H  0.83460515  0.57027688  0.03388202     0.14900
In49       In  0.18281672  0.31986266  0.38599651     1.36900
C50         C  0.10093044  0.32035256  0.38597659     0.77700
O51         O  0.17859597  0.29117697  0.43458943    -0.60700
O52         O  0.23201359  0.31103276  0.43511271    -0.51600
C53         C  0.22053624  0.29716647  0.31868477     0.70400
O54         O  0.18264146  0.29523188  0.32883076    -0.46500
C55         C  0.19596644  0.36244755  0.38968808     0.75100
O56         O  0.12241942  0.31951303  0.34831241    -0.58300
O57         O  0.19361130  0.35098993  0.42627358    -0.48400
O58         O  0.12163149  0.32102711  0.42315868    -0.54800
C59         C  0.21442125  0.29403399  0.44972620     0.85300
O60         O  0.23843176  0.31240567  0.33977426    -0.56600
O61         O  0.19330839  0.35184714  0.35166938    -0.59900
In62       In  0.33386587  0.20928923  0.13239573     1.36900
C63         C  0.41547807  0.20805207  0.13825021     0.77700
O64         O  0.33487169  0.23674213  0.18281949    -0.60700
O65         O  0.28163851  0.21653059  0.18307888    -0.51600
C66         C  0.30198988  0.23402840  0.06629557     0.70400
O67         O  0.33971775  0.23497421  0.07586187    -0.46500
C68         C  0.31842908  0.16727495  0.12151330     0.75100
O69         O  0.39672437  0.21044589  0.10013225    -0.58300
O70         O  0.31859648  0.17607460  0.16175843    -0.48400
O71         O  0.39209452  0.20584126  0.17416404    -0.54800
C72         C  0.29858783  0.23351557  0.19814097     0.85300
O73         O  0.28209061  0.21957609  0.08834884    -0.56600
O74         O  0.32430448  0.18019688  0.08776347    -0.59900
In75       In  0.83985342  0.32180643  0.39285298     1.36900
C76         C  0.92203629  0.32271823  0.39484773     0.77700
O77         O  0.83722188  0.29004218  0.35229139    -0.60700
O78         O  0.79238972  0.31394533  0.33953592    -0.51600
C79         C  0.80305706  0.30169260  0.46426369     0.70400
O80         O  0.83952560  0.29779297  0.45044024    -0.46500
C81         C  0.82629824  0.36392060  0.38033099     0.75100
O82         O  0.89984880  0.32699327  0.43081258    -0.58300
O83         O  0.83600225  0.35101370  0.34719643    -0.48400
O84         O  0.90189288  0.31833251  0.35843014    -0.54800
C85         C  0.80468278  0.29487863  0.33150960     0.85300
O86         O  0.78654497  0.31756335  0.44432831    -0.56600
O87         O  0.82241412  0.35507112  0.42018680    -0.59900
In88       In  0.67537996  0.21602934  0.14369098     1.36900
C89         C  0.59385352  0.21377097  0.13884134     0.77700
O90         O  0.68008018  0.24666430  0.10327833    -0.60700
O91         O  0.72526465  0.22239973  0.09084413    -0.51600
C92         C  0.70928059  0.23808947  0.21306303     0.70400
O93         O  0.67362299  0.24217287  0.19890642    -0.46500
C94         C  0.69078603  0.17406088  0.13322322     0.75100
O95         O  0.61324926  0.21034772  0.17617765    -0.58300
O96         O  0.68639086  0.18683282  0.09913479    -0.48400
O97         O  0.61644170  0.21877030  0.10380756    -0.54800
C98         C  0.71337041  0.24136973  0.08256704     0.85300
O99         O  0.72532656  0.22117103  0.19559891    -0.56600
O100        O  0.68884461  0.18303249  0.17339153    -0.59900
C101        C  0.36065956  0.95293444  0.35191252     0.86700
C102        C  0.35320860  0.96664623  0.30726819    -0.53600
C103        C  0.37422951  0.98592585  0.30609273     0.09600
C104        C  0.39975385  0.99012292  0.35014571     0.20500
C105        C  0.40774768  0.95108878  0.35349307    -0.54300
C106        C  0.42815380  0.97031097  0.35235407     0.09700
C107        C  0.34833402  0.96823440  0.39233738    -0.53800
C108        C  0.36898460  0.98761353  0.39212440     0.10300
H109        H  0.33361303  0.96206037  0.27843960     0.14800
H110        H  0.41671168  0.00571972  0.35001219     0.00500
H111        H  0.42365431  0.93570395  0.35586981     0.15100
H112        H  0.32610651  0.96379117  0.41986819     0.14900
C113        C  0.35431792  0.07624359  0.10279145     0.86700
C114        C  0.34460325  0.06130290  0.14537328    -0.53600
C115        C  0.36495315  0.04204181  0.14378821     0.09600
C116        C  0.39371016  0.03927276  0.10003609     0.20500
C117        C  0.40157617  0.07826118  0.10198895    -0.54300
C118        C  0.42233348  0.05909866  0.09996394     0.09700
C119        C  0.34456445  0.06207436  0.05992110    -0.53800
C120        C  0.36542988  0.04273501  0.05810316     0.10300
H121        H  0.32543224  0.06540337  0.17591498     0.14800
H122        H  0.41122423  0.02392347  0.09937140     0.00500
H123        H  0.41745138  0.09376022  0.10367745     0.15100
H124        H  0.32355812  0.06713656  0.03291459     0.14900
C125        C  0.67254973  0.95754192  0.35554666     0.86700
C126        C  0.68468071  0.97172485  0.39794564    -0.53600
C127        C  0.66293289  0.99059430  0.40194576     0.09600
C128        C  0.63119766  0.99383035  0.36286117     0.20500
C129        C  0.62592455  0.95469141  0.36139553    -0.54300
C130        C  0.60446000  0.97344521  0.36498430     0.09700
C131        C  0.67879128  0.97289712  0.31344907    -0.53800
C132        C  0.65579421  0.99144201  0.31620004     0.10300
H133        H  0.70828121  0.96765061  0.42282125     0.14800
H134        H  0.61330995  0.00907190  0.36578970     0.00500
H135        H  0.61077648  0.93895235  0.36090396     0.15100
H136        H  0.69948399  0.96956183  0.28377868     0.14900
C137        C  0.66706277  0.08165329  0.11115495     0.86700
C138        C  0.67910813  0.06767705  0.06777591    -0.53600
C139        C  0.66000854  0.04771154  0.06604332     0.09600
C140        C  0.63076249  0.04378363  0.10937028     0.20500
C141        C  0.61974599  0.08262806  0.11150513    -0.54300
C142        C  0.60065069  0.06303899  0.11109437     0.09700
C143        C  0.67713438  0.06679611  0.15317196    -0.53800
C144        C  0.65808534  0.04717794  0.15250889     0.10300
H145        H  0.70122474  0.07316031  0.04116090     0.14800
H146        H  0.61410376  0.02817873  0.10946670     0.00500
H147        H  0.60267440  0.09775260  0.11187369     0.15100
H148        H  0.69666029  0.07097342  0.18230595     0.14900
In149      In  0.18239338  0.71276225  0.09834331     1.36900
C150        C  0.10136598  0.71406992  0.09267192     0.77700
O151        O  0.18326568  0.74261030  0.05448574    -0.60700
O152        O  0.22627447  0.71764544  0.03792163    -0.51600
C153        C  0.22133537  0.73564189  0.16254503     0.70400
O154        O  0.18297169  0.73696840  0.15728935    -0.46500
C155        C  0.19216220  0.67065454  0.11508539     0.75100
O156        O  0.12068334  0.71767315  0.12995966    -0.58300
O157        O  0.19671868  0.67832846  0.07412728    -0.48400
O158        O  0.12392008  0.70955331  0.05710056    -0.54800
C159        C  0.21391843  0.73664088  0.02974700     0.85300
O160        O  0.23914780  0.72160313  0.13679887    -0.56600
O161        O  0.18456787  0.68462602  0.14661087    -0.59900
In162      In  0.34401014  0.81896875  0.34323875     1.36900
C163        C  0.42495876  0.82217813  0.34504948     0.77700
O164        O  0.34978753  0.79449505  0.28473308    -0.60700
O165        O  0.29318266  0.81126357  0.29614172    -0.51600
C166        C  0.30818745  0.79309386  0.40646619     0.70400
O167        O  0.34165622  0.78822131  0.38566065    -0.46500
C168        C  0.32820372  0.86109009  0.34886113     0.75100
O169        O  0.40279952  0.81714315  0.38053673    -0.58300
O170        O  0.32712625  0.85075962  0.31040536    -0.48400
O171        O  0.40536052  0.82543072  0.30790291    -0.54800
C172        C  0.31232991  0.79628574  0.27461412     0.85300
O173        O  0.29516788  0.81183672  0.39747463    -0.56600
O174        O  0.33501677  0.84950632  0.38436837    -0.59900
In175      In  0.84155506  0.71403262  0.09901422     1.36900
C176        C  0.92324708  0.71422896  0.09983592     0.77700
O177        O  0.83997652  0.74003988  0.15239634    -0.60700
O178        O  0.78686731  0.72005256  0.14799441    -0.51600
C179        C  0.81031713  0.73852203  0.03255946     0.70400
O180        O  0.84475957  0.74251723  0.05020506    -0.46500
C181        C  0.82924495  0.67154606  0.10187828     0.75100
O182        O  0.90294615  0.71184133  0.06268306    -0.58300
O183        O  0.83330345  0.68329604  0.13800353    -0.48400
O184        O  0.90145707  0.71626474  0.13696239    -0.54800
C185        C  0.80347304  0.73640915  0.16645868     0.85300
O186        O  0.79368655  0.72109491  0.04623469    -0.56600
O187        O  0.83036318  0.68174784  0.06345671    -0.59900
In188      In  0.68398292  0.82190466  0.35444144     1.36900
C189        C  0.60233146  0.82274858  0.35715697     0.77700
O190        O  0.68499784  0.79151106  0.39729766    -0.60700
O191        O  0.73275761  0.81474469  0.40559490    -0.51600
C192        C  0.71967438  0.79913533  0.28548059     0.70400
O193        O  0.68303844  0.79600812  0.29977674    -0.46500
C194        C  0.69652036  0.86476630  0.35500369     0.75100
O195        O  0.62391800  0.82420877  0.31968742    -0.58300
O196        O  0.69303297  0.85388440  0.39250919    -0.48400
O197        O  0.62279262  0.82070648  0.39415552    -0.54800
C198        C  0.71910975  0.79605834  0.41518733     0.85300
O199        O  0.73685960  0.81548603  0.30328866    -0.56600
O200        O  0.69544620  0.85346239  0.31780289    -0.59900
C201        C  0.77294083  0.78927598  0.47270303    -0.12100
C202        C  0.74224347  0.78079561  0.44412824     0.04900
C203        C  0.73635360  0.75807605  0.44234485    -0.07400
C204        C  0.75977304  0.74469183  0.97065805    -0.08100
C205        C  0.78979719  0.75328511  0.50012822    -0.02700
C206        C  0.79676377  0.77589443  0.50044106     0.04100
N207        N  0.82637291  0.78587152  0.53004328     0.66600
H208        H  0.77834234  0.80667024  0.47411921     0.15500
H209        H  0.75445956  0.72728585  0.96942763     0.15300
N210        N  0.70826654  0.74804604  0.41088392     0.74300
O211        O  0.86026432  0.79189847  0.51158453    -0.39100
O212        O  0.81359789  0.79519695  0.56729228    -0.39000
O213        O  0.72270869  0.73958503  0.37340168    -0.39800
O214        O  0.67430909  0.74107468  0.92750804    -0.39800
C215        C  0.79966187  0.77192193  0.20531275    -0.12100
C216        C  0.78189870  0.75143336  0.19909188     0.04900
C217        C  0.74328479  0.74695925  0.22107117    -0.07400
C218        C  0.72357475  0.76301582  0.24806842    -0.08100
C219        C  0.74111216  0.78364643  0.25361830    -0.02700
C220        C  0.77977856  0.78801479  0.23173268     0.04100
N221        N  0.79892528  0.80880775  0.23394187     0.66600
H222        H  0.82907415  0.77591093  0.18815242     0.15500
H223        H  0.69417248  0.75910401  0.26533366     0.15300
N224        N  0.72342405  0.72639805  0.21695194     0.74300
O225        O  0.82851005  0.81139594  0.26154179    -0.39100
O226        O  0.79694264  0.82089804  0.19836222    -0.39000
O227        O  0.72328920  0.71392181  0.25203396    -0.39800
O228        O  0.69522653  0.72435640  0.18733993    -0.39800
C229        C  0.53874659  0.83015342  0.31446798    -0.12100
C230        C  0.55683865  0.82353584  0.35635802     0.04900
C231        C  0.53090870  0.81765723  0.39496969    -0.07400
C232        C  0.48825054  0.81763574  0.39002350    -0.08100
C233        C  0.47022888  0.82364729  0.34769445    -0.02700
C234        C  0.49606481  0.83046667  0.30976134     0.04100
N235        N  0.48014988  0.83822034  0.26654121     0.66600
H236        H  0.55798647  0.83530043  0.28460777     0.15500
H237        H  0.46903752  0.81258057  0.41997871     0.15300
N238        N  0.54667847  0.81129080  0.43928603     0.74300
O239        O  0.47827072  0.85843360  0.26065829    -0.39100
O240        O  0.48271144  0.82610442  0.23061319    -0.39000
O241        O  0.54454538  0.82468530  0.47303039    -0.39800
O242        O  0.54767955  0.79135075  0.44864644    -0.39800
C243        C  0.03527532  0.71573022  0.13645096    -0.12100
C244        C  0.05591820  0.71473609  0.09257172     0.04900
C245        C  0.03243886  0.71413178  0.05126544    -0.07400
C246        C  0.98943629  0.71416189  0.05501781    -0.08100
C247        C  0.96881054  0.71469715  0.09900323    -0.02700
C248        C  0.99241015  0.71564057  0.14024892     0.04100
N249        N  0.97407926  0.71591599  0.18648758     0.66600
H250        H  0.05258289  0.71617298  0.16885206     0.15500
H251        H  0.97200629  0.71370313  0.02272056     0.15300
N252        N  0.05105561  0.71372173  0.00518498     0.74300
O253        O  0.97275746  0.69840611  0.20918945    -0.39100
O254        O  0.97401965  0.73353233  0.20928108    -0.39000
O255        O  0.05104237  0.69606495  0.98255522    -0.39800
O256        O  0.05288522  0.73118767  0.98234998    -0.39800
C257        C  0.25043838  0.78637169  0.46246096    -0.12100
C258        C  0.28480386  0.77813635  0.43761513     0.04900
C259        C  0.29388674  0.75581890  0.94133270    -0.07400
C260        C  0.26939508  0.74267057  0.97043751    -0.08100
C261        C  0.23553392  0.75102653  0.99598011    -0.02700
C262        C  0.22574579  0.77322301  0.99126700     0.04100
N263        N  0.19149681  0.78302944  0.01560324     0.66600
H264        H  0.24238911  0.80340737  0.45970909     0.15500
H265        H  0.27737818  0.72562451  0.97320786     0.15300
N266        N  0.32693286  0.74585488  0.91521719     0.74300
O267        O  0.19831490  0.79408163  0.55206836    -0.39100
O268        O  0.15970786  0.78717625  0.99250034    -0.39000
O269        O  0.35908740  0.74085667  0.93683284    -0.39800
O270        O  0.31843138  0.73548780  0.87821072    -0.39800
C271        C  0.24765768  0.78009864  0.24921259    -0.12100
C272        C  0.29065877  0.78100711  0.24388619     0.04900
C273        C  0.31080929  0.76586480  0.21378785    -0.07400
C274        C  0.28740205  0.75105629  0.18835904    -0.08100
C275        C  0.24432547  0.75029895  0.19356188    -0.02700
C276        C  0.22452258  0.76470008  0.22555634     0.04100
N277        N  0.18155196  0.76318884  0.23721647     0.66600
H278        H  0.23155569  0.79087070  0.27392465     0.15500
H279        H  0.30335886  0.74000126  0.16416595     0.15300
N280        N  0.35467593  0.76482860  0.20882236     0.74300
O281        O  0.17090863  0.75290216  0.27386617    -0.39100
O282        O  0.15783096  0.77768728  0.22245939    -0.39000
O283        O  0.37319641  0.74998070  0.23011159    -0.39800
O284        O  0.37160781  0.77281499  0.17235807    -0.39800
C285        C  0.66052218  0.99634679  0.48832723    -0.12100
C286        C  0.66630348  0.00504531  0.44346436     0.04900
C287        C  0.67460008  0.02719448  0.43883448    -0.07400
C288        C  0.67308621  0.04074252  0.97892296    -0.08100
C289        C  0.66505496  0.03229890  0.02465076    -0.02700
C290        C  0.66061190  0.00941361  0.02874208     0.04100
N291        N  0.65825960  0.99854971  0.07300749     0.66600
H292        H  0.65568028  0.97902068  0.49216340     0.15500
H293        H  0.67776412  0.05790468  0.97384279     0.15300
N294        N  0.68712163  0.03568114  0.39392854     0.74300
O295        O  0.62406422  0.99031108  0.08550558    -0.39100
O296        O  0.69074650  0.98983485  0.08747307    -0.39000
O297        O  0.66040224  0.04375938  0.36770000    -0.39800
O298        O  0.72143334  0.02993579  0.37600358    -0.39800
C299        C  0.69290191  0.01318799  0.25604279    -0.12100
C300        C  0.65506732  0.00704081  0.27653742     0.04900
C301        C  0.61829580  0.01437619  0.25587719    -0.07400
C302        C  0.62043464  0.02670410  0.21462367    -0.08100
C303        C  0.65834800  0.03255775  0.19387218    -0.02700
C304        C  0.69503037  0.02593415  0.21560270     0.04100
N305        N  0.73490646  0.03143757  0.19695111     0.66600
H306        H  0.72151589  0.00790758  0.27160378     0.15500
H307        H  0.59189710  0.03214121  0.19911728     0.15300
N308        N  0.57840687  0.00901250  0.27461006     0.74300
O309        O  0.75466828  0.04636595  0.21703132    -0.39100
O310        O  0.75494271  0.01706473  0.17448493    -0.39000
O311        O  0.55900471  0.02332110  0.29801752    -0.39800
O312        O  0.55796110  0.99472026  0.25338486    -0.39800
C313        C  0.70223818  0.92418726  0.39237270    -0.12100
C314        C  0.69152624  0.93493128  0.35095723     0.04900
C315        C  0.68670634  0.92211920  0.30960213    -0.07400
C316        C  0.69115197  0.89952575  0.31134881    -0.08100
C317        C  0.69907681  0.88888049  0.35386469    -0.02700
C318        C  0.70577749  0.90169527  0.39441194     0.04100
N319        N  0.71406852  0.89246403  0.43914024     0.66600
H320        H  0.70458099  0.93288384  0.42543648     0.15500
H321        H  0.68596213  0.89019892  0.27960340     0.15300
N322        N  0.67588897  0.93158416  0.26570510     0.74300
O323        O  0.75076052  0.89301641  0.45297801    -0.39100
O324        O  0.68519371  0.89211034  0.46977801    -0.39000
O325        O  0.70389424  0.93593605  0.23554204    -0.39800
O326        O  0.63941234  0.93778596  0.25909751    -0.39800
C327        C  0.53721917  0.04792627  0.07595782    -0.12100
C328        C  0.55497811  0.06076818  0.11092988     0.04900
C329        C  0.52869037  0.07181836  0.14348939    -0.07400
C330        C  0.48598385  0.07048054  0.13916303    -0.08100
C331        C  0.46806595  0.05827373  0.10331339    -0.02700
C332        C  0.49423057  0.04649238  0.07179562     0.04100
N333        N  0.47835125  0.03369818  0.03426579     0.66600
H334        H  0.55701120  0.03935309  0.05058068     0.15500
H335        H  0.46638102  0.07907782  0.16469851     0.15300
N336        N  0.54427040  0.08355284  0.18277542     0.74300
O337        O  0.47805774  0.04175846  0.99350412    -0.39100
O338        O  0.47933948  0.01335742  0.03806564    -0.39000
O339        O  0.54241518  0.10396339  0.18230826    -0.39800
O340        O  0.54480836  0.07413115  0.22210601    -0.39800
C341        C  0.49125863  0.98347404  0.39136201    -0.12100
C342        C  0.47351444  0.97168883  0.35425864     0.04900
C343        C  0.49953419  0.96054991  0.32143957    -0.07400
C344        C  0.54193297  0.96202474  0.32549752    -0.08100
C345        C  0.55946272  0.97352570  0.36231810    -0.02700
C346        C  0.53424294  0.98393228  0.39619050     0.04100
N347        N  0.55184246  0.99271627  0.43790201     0.66600
H348        H  0.47170763  0.99127970  0.41778104     0.15500
H349        H  0.56158953  0.95369336  0.29968098     0.15300
N350        N  0.48434757  0.94684885  0.28486314     0.74300
O351        O  0.56290919  0.01230924  0.43861542    -0.39100
O352        O  0.56614412  0.97989102  0.46786433    -0.39000
O353        O  0.49111724  0.95242557  0.24267706    -0.39800
O354        O  0.48161770  0.92685533  0.29327390    -0.39800
C355        C  0.33349149  0.00589661  0.24750416    -0.12100
C356        C  0.37221986  0.00092080  0.26542607     0.04900
C357        C  0.40783432  0.00945197  0.24244982    -0.07400
C358        C  0.40402786  0.02229607  0.20255799    -0.08100
C359        C  0.36555996  0.02725907  0.18468269    -0.02700
C360        C  0.32969733  0.01898746  0.20772455     0.04100
N361        N  0.28934917  0.02279152  0.19056444     0.66600
H362        H  0.30566846  0.99945498  0.26453348     0.15500
H363        H  0.43190930  0.02870828  0.18555786     0.15300
N364        N  0.44847387  0.00437323  0.25663319     0.74300
O365        O  0.27303354  0.00828275  0.16557560    -0.39100
O366        O  0.26607344  0.03568913  0.21327999    -0.39000
O367        O  0.46982867  0.99244109  0.22944958    -0.39800
O368        O  0.46698502  0.01795860  0.28196214    -0.39800
C369        C  0.36807744  0.99290599  0.47838695    -0.12100
C370        C  0.36708560  0.00236275  0.43363338     0.04900
C371        C  0.36502468  0.02516050  0.43048708    -0.07400
C372        C  0.36447473  0.03768084  0.97161231    -0.08100
C373        C  0.36488811  0.02818414  0.01636872    -0.02700
C374        C  0.36654060  0.00535476  0.01949773     0.04100
N375        N  0.36479734  0.99420124  0.06347500     0.66600
H376        H  0.37014736  0.97540053  0.48176544     0.15500
H377        H  0.36403625  0.05521436  0.96817390     0.15300
N378        N  0.36175236  0.03609007  0.38656455     0.74300
O379        O  0.33034686  0.98688093  0.07771054    -0.39100
O380        O  0.39711535  0.98503616  0.07714865    -0.39000
O381        O  0.32670395  0.04294591  0.37532263    -0.39800
O382        O  0.39333634  0.04563671  0.37005258    -0.39800
C383        C  0.32307311  0.92060882  0.31639889    -0.12100
C384        C  0.34136491  0.93027867  0.35570558     0.04900
C385        C  0.34721029  0.91701431  0.39600592    -0.07400
C386        C  0.33879340  0.89485325  0.39381513    -0.08100
C387        C  0.32574608  0.88499741  0.35225168    -0.02700
C388        C  0.31603326  0.89833069  0.31385580     0.04100
N389        N  0.30070357  0.88970213  0.27092461     0.66600
H390        H  0.31646654  0.92976765  0.28502281     0.15500
H391        H  0.34574642  0.88501416  0.42431211     0.15300
N392        N  0.36452076  0.92512184  0.43853809     0.74300
O393        O  0.26263465  0.89146890  0.26354995    -0.39100
O394        O  0.32530056  0.88808288  0.23592596    -0.39000
O395        O  0.34083443  0.92740659  0.47417915    -0.39800
O396        O  0.40239060  0.92195637  0.44514431    -0.39800
C397        C  0.68491336  0.14184434  0.08160299    -0.12100
C398        C  0.69460478  0.15036353  0.12583032     0.04900
C399        C  0.70335638  0.13582503  0.16229723    -0.07400
C400        C  0.69871290  0.11362032  0.15507081    -0.08100
C401        C  0.68450754  0.10487717  0.11238122    -0.02700
C402        C  0.67925944  0.11959593  0.07451886     0.04100
N403        N  0.66602445  0.11272141  0.02914823     0.66600
H404        H  0.67883716  0.15268798  0.05249204     0.15500
H405        H  0.70372649  0.10371637  0.18579158     0.15300
N406        N  0.71558915  0.14303416  0.20777241     0.74300
O407        O  0.62857640  0.11519764  0.01930656    -0.39100
O408        O  0.69244662  0.11228822  0.99574275    -0.39000
O409        O  0.68910051  0.14271506  0.24110136    -0.39800
O410        O  0.75324291  0.14165271  0.21761780    -0.39800
C411        C  0.79758936  0.26668035  0.00586809    -0.12100
C412        C  0.78091743  0.28736989  0.49791452     0.04900
C413        C  0.74207946  0.29261901  0.51863796    -0.07400
C414        C  0.72083773  0.27727486  0.04568808    -0.08100
C415        C  0.73694201  0.25660162  0.05260966    -0.02700
C416        C  0.77593148  0.25136311  0.03286078     0.04100
N417        N  0.79380271  0.23054017  0.03983547     0.66600
H418        H  0.82704232  0.26211874  0.99011515     0.15500
H419        H  0.69117434  0.28172426  0.06146815     0.15300
N420        N  0.72351647  0.31337598  0.51367479     0.74300
O421        O  0.78218406  0.21481281  0.01477492    -0.39100
O422        O  0.81162273  0.22680955  0.07800488    -0.39000
O423        O  0.69306151  0.31491205  0.48701916    -0.39800
O424        O  0.72644041  0.32668984  0.54736268    -0.39800
C425        C  0.74969615  0.28825404  0.27466149    -0.12100
C426        C  0.78146722  0.27967490  0.30132636     0.04900
C427        C  0.78824626  0.25700005  0.29979641    -0.07400
C428        C  0.76344711  0.24378419  0.27186809    -0.08100
C429        C  0.73180381  0.25249063  0.24524007    -0.02700
C430        C  0.72521301  0.27510217  0.24659270     0.04100
N431        N  0.69589605  0.28538787  0.21746489     0.66600
H432        H  0.74400530  0.30561249  0.27482054     0.15500
H433        H  0.76927773  0.22643391  0.27081353     0.15300
N434        N  0.81964015  0.24686949  0.32624767     0.74300
O435        O  0.66238940  0.29178864  0.23624320    -0.39100
O436        O  0.70890831  0.29450059  0.18025986    -0.39000
O437        O  0.80901548  0.23665532  0.36299542    -0.39800
O438        O  0.85282283  0.24164399  0.30501744    -0.39800
C439        C  0.33417965  0.13566656  0.07159989    -0.12100
C440        C  0.31649746  0.14360580  0.11360737     0.04900
C441        C  0.30267995  0.12862401  0.14788157    -0.07400
C442        C  0.31122889  0.10659117  0.14167809    -0.08100
C443        C  0.33462809  0.09886314  0.10261865    -0.02700
C444        C  0.34369024  0.11380167  0.06575527     0.04100
N445        N  0.36482581  0.10760832  0.02303766     0.66600
H446        H  0.34383184  0.14680252  0.04382316     0.15500
H447        H  0.30043204  0.09595289  0.16961761     0.15300
N448        N  0.27989871  0.13518125  0.18919705     0.74300
O449        O  0.34376855  0.10520213  0.48651007    -0.39100
O450        O  0.40241549  0.11267968  0.01801120    -0.39000
O451        O  0.24150054  0.13170031  0.19062954    -0.39800
O452        O  0.29863861  0.13655891  0.22757653    -0.39800
C453        C  0.52677148  0.20695446  0.17913578    -0.12100
C454        C  0.54836988  0.21195488  0.13722134     0.04900
C455        C  0.52578061  0.21477445  0.09564175    -0.07400
C456        C  0.48283710  0.21316773  0.09744627    -0.08100
C457        C  0.46114962  0.20851333  0.13952474    -0.02700
C458        C  0.48382721  0.20505626  0.18077602     0.04100
N459        N  0.46450502  0.19912119  0.22452890     0.66600
H460        H  0.54339617  0.20432786  0.21147039     0.15500
H461        H  0.46629225  0.21570323  0.06502317     0.15300
N462        N  0.54528077  0.21895678  0.05096693     0.74300
O463        O  0.46457146  0.17938947  0.23585614    -0.39100
O464        O  0.46191974  0.21321061  0.25686281    -0.39000
O465        O  0.54790981  0.20360027  0.02149023    -0.39800
O466        O  0.54533218  0.23812668  0.03580889    -0.39800
C467        C  0.98811326  0.31674201  0.35183240    -0.12100
C468        C  0.96783451  0.32246581  0.39425349     0.04900
C469        C  0.99201355  0.32732537  0.43391244    -0.07400
C470        C  0.03506897  0.32641460  0.42992163    -0.08100
C471        C  0.05522642  0.32079488  0.38734494    -0.02700
C472        C  0.03105238  0.31583031  0.34788109     0.04100
N473        N  0.04892398  0.30922969  0.30367340     0.66600
H474        H  0.97042714  0.31269832  0.32085824     0.15500
H475        H  0.05295131  0.33035668  0.46081598     0.15300
N476        N  0.97409162  0.33333186  0.47851696     0.74300
O477        O  0.04972750  0.28926033  0.29397773    -0.39100
O478        O  0.04925632  0.32258433  0.27017503    -0.39000
O479        O  0.97378068  0.31953348  0.51116198    -0.39800
O480        O  0.97331677  0.35316235  0.48950933    -0.39800
C481        C  0.23878411  0.24619633  0.02811670    -0.12100
C482        C  0.28126687  0.24898727  0.53400152     0.04900
C483        C  0.30130517  0.26656566  0.51129937    -0.07400
C484        C  0.27833980  0.28109240  0.48517907    -0.08100
C485        C  0.23574627  0.27843840  0.47986558    -0.02700
C486        C  0.21602605  0.26039944  0.50103698     0.04100
N487        N  0.17325559  0.25582833  0.49537827     0.66600
H488        H  0.22258660  0.23270451  0.04479451     0.15500
H489        H  0.29452210  0.29447664  0.46805904     0.15300
N490        N  0.34477617  0.26998532  0.51333662     0.74300
O491        O  0.16351910  0.24151614  0.96565224    -0.39100
O492        O  0.14872572  0.25963999  0.52961780    -0.39000
O493        O  0.36682927  0.26456021  0.47796429    -0.39800
O494        O  0.35783526  0.28466194  0.54033448    -0.39800
C495        C  0.21769241  0.26957497  0.25596183    -0.12100
C496        C  0.24182024  0.28186813  0.28648132     0.04900
C497        C  0.28458608  0.27758514  0.28848405    -0.07400
C498        C  0.30200824  0.26149869  0.25972380    -0.08100
C499        C  0.27774957  0.24910194  0.22968318    -0.02700
C500        C  0.23501402  0.25323990  0.22784655     0.04100
N501        N  0.20875995  0.24169205  0.19672345     0.66600
H502        H  0.18470020  0.27255139  0.25402650     0.15500
H503        H  0.33498200  0.25842341  0.26156200     0.15300
N504        N  0.31057520  0.28828536  0.32121919     0.74300
O505        O  0.18577663  0.22701915  0.21369271    -0.39100
O506        O  0.19842434  0.25075974  0.15906279    -0.39000
O507        O  0.31928798  0.27850490  0.35861383    -0.39800
O508        O  0.33499225  0.30271157  0.30595680    -0.39800
C509        C  0.82271266  0.61165216  0.07071653    -0.12100
C510        C  0.83810254  0.60217426  0.11173072     0.04900
C511        C  0.84268373  0.61588926  0.15183434    -0.07400
C512        C  0.83673957  0.63818063  0.14802929    -0.08100
C513        C  0.82648617  0.64767691  0.10527880    -0.02700
C514        C  0.81738554  0.63400702  0.06688837     0.04100
N515        N  0.80349090  0.64227862  0.02319533     0.66600
H516        H  0.81643811  0.60220534  0.03944763     0.15500
H517        H  0.84264152  0.64829043  0.17870829     0.15300
N518        N  0.85542403  0.60792106  0.19635518     0.74300
O519        O  0.82926433  0.64395078  0.98936096    -0.39100
O520        O  0.76577759  0.64020699  0.01402003    -0.39000
O521        O  0.89228548  0.61110290  0.20803303    -0.39800
O522        O  0.82827423  0.60573083  0.22862133    -0.39800
C523        C  0.90342315  0.51125423  0.45908916    -0.12100
C524        C  0.86509849  0.50500085  0.44193857     0.04900
C525        C  0.82884555  0.51199541  0.46628408    -0.07400
C526        C  0.83192658  0.52491548  0.00669130    -0.08100
C527        C  0.87027945  0.53101711  0.02408675    -0.02700
C528        C  0.90649078  0.52401798  0.99976387     0.04100
N529        N  0.94664951  0.53034507  0.01405566     0.66600
H530        H  0.93163794  0.50587118  0.44108583     0.15500
H531        H  0.80376218  0.53040385  0.02464344     0.15300
N532        N  0.78861185  0.50700778  0.44990339     0.74300
O533        O  0.96770717  0.51685488  0.03640871    -0.39100
O534        O  0.96539496  0.54466121  0.99022319    -0.39000
O535        O  0.76734582  0.49310511  0.47213722    -0.39800
O536        O  0.77011168  0.52119977  0.42663018    -0.39800
C537        C  0.85539060  0.53946092  0.23727869    -0.12100
C538        C  0.85451023  0.52986572  0.19235925     0.04900
C539        C  0.85499865  0.50705882  0.18875940    -0.07400
C540        C  0.85769953  0.49462555  0.22936406    -0.08100
C541        C  0.85897670  0.50415360  0.27426702    -0.02700
C542        C  0.85732209  0.52699329  0.27808162     0.04100
N543        N  0.85600178  0.53801494  0.32249622     0.66600
H544        H  0.85568105  0.55700872  0.24094695     0.15500
H545        H  0.85914968  0.47710583  0.22539023     0.15300
N546        N  0.85113001  0.49599142  0.14476653     0.74300
O547        O  0.88829041  0.54746899  0.33585466    -0.39100
O548        O  0.82157115  0.54495100  0.33771738    -0.39000
O549        O  0.88246120  0.48652427  0.12736179    -0.39800
O550        O  0.81588917  0.48906570  0.13406383    -0.39800
C551        C  0.81579685  0.42464133  0.40113182    -0.12100
C552        C  0.83408107  0.43291234  0.35945037     0.04900
C553        C  0.84134691  0.41797825  0.32171031    -0.07400
C554        C  0.83523956  0.39579832  0.32872651    -0.08100
C555        C  0.82271494  0.38759429  0.37266144    -0.02700
C556        C  0.81088047  0.40244567  0.40849288     0.04100
N557        N  0.79545506  0.39559949  0.45354486     0.66600
H558        H  0.80728586  0.43496747  0.43077842     0.15500
H559        H  0.84313222  0.38476618  0.29985585     0.15300
N560        N  0.85739298  0.42458440  0.27670724     0.74300
O561        O  0.81997716  0.39549507  0.98745967    -0.39100
O562        O  0.75736671  0.39772198  0.46258042    -0.39000
O563        O  0.89485844  0.42081947  0.26675067    -0.39800
O564        O  0.83254311  0.42609074  0.24331897    -0.39800
C565        C  0.03655697  0.48676955  0.35188647    -0.12100
C566        C  0.05133673  0.47153570  0.38349271     0.04900
C567        C  0.02286240  0.45734350  0.40608482    -0.07400
C568        C  0.98098592  0.45914108  0.39715094    -0.08100
C569        C  0.96607756  0.47384226  0.36419437    -0.02700
C570        C  0.99466736  0.48784688  0.34137647     0.04100
N571        N  0.98313162  0.50192721  0.30450855     0.66600
H572        H  0.05813035  0.49740220  0.33318909     0.15500
H573        H  0.95975624  0.44854659  0.41638191     0.15300
N574        N  0.03493959  0.44117096  0.43878003     0.74300
O575        O  0.97974075  0.52184034  0.31395191    -0.39100
O576        O  0.99308724  0.49639180  0.26289837    -0.39000
O577        O  0.03716804  0.42183673  0.42427626    -0.39800
O578        O  0.02634092  0.44434679  0.48185274    -0.39800
C579        C  0.19466674  0.42119988  0.43098424    -0.12100
C580        C  0.18479276  0.43200625  0.38920084     0.04900
C581        C  0.18479292  0.41951380  0.34680387    -0.07400
C582        C  0.19250276  0.39728836  0.34795902    -0.08100
C583        C  0.19830811  0.38644314  0.39039055    -0.02700
C584        C  0.20101126  0.39885845  0.43217148     0.04100
N585        N  0.20792851  0.38923363  0.47688696     0.66600
H586        H  0.19412878  0.42945187  0.46480011     0.15500
H587        H  0.19060606  0.38816219  0.31514081     0.15300
N588        N  0.17356336  0.42838619  0.30254556     0.74300
O589        O  0.24339153  0.39099104  0.49392702    -0.37500
O590        O  0.17741420  0.38668081  0.50479004    -0.39000
O591        O  0.20177643  0.43145364  0.27186031    -0.39800
O592        O  0.13727184  0.42525994  0.28879822    -0.39800
C593        C  0.99063423  0.56604877  0.08798674    -0.12100
C594        C  0.96532215  0.55788067  0.12400734     0.04900
C595        C  0.98302174  0.54866218  0.16401432    -0.07400
C596        C  0.02585806  0.54828609  0.16782126    -0.08100
C597        C  0.05118064  0.55692422  0.13220564    -0.02700
C598        C  0.03329827  0.56535288  0.09117459     0.04100
N599        N  0.05767753  0.57290335  0.05201060     0.66600
H600        H  0.97703898  0.57320024  0.05703392     0.15500
H601        H  0.03938397  0.54199546  0.19970731     0.15300
N602        N  0.95811843  0.54067861  0.20210030     0.74300
O603        O  0.06337327  0.56023599  0.01739965    -0.39100
O604        O  0.05993416  0.59303933  0.04501279    -0.39000
O605        O  0.95594220  0.55150483  0.23994266    -0.39800
O606        O  0.94973511  0.52074389  0.20302373    -0.39800
C607        C  0.11943732  0.51594879  0.05303889    -0.12100
C608        C  0.15524704  0.52840990  0.06131071     0.04900
C609        C  0.18862040  0.52669884  0.02778505    -0.07400
C610        C  0.18518280  0.51331101  0.48817264    -0.08100
C611        C  0.14972624  0.50126925  0.48070777    -0.02700
C612        C  0.11683430  0.50242330  0.51339592     0.04100
N613        N  0.08161419  0.48890934  0.50778073     0.66600
H614        H  0.09280982  0.51684769  0.07649421     0.15500
H615        H  0.21091239  0.51213450  0.46302840     0.15300
N616        N  0.22696307  0.53772776  0.03289109     0.74300
O617        O  0.08506559  0.46900022  0.51641712    -0.39100
O618        O  0.05292280  0.49522897  0.48196775    -0.39000
O619        O  0.25746724  0.52675892  0.04569655    -0.39800
O620        O  0.23382025  0.55403185  0.00721304    -0.39800
C621        C  0.16038440  0.49620744  0.26859028    -0.12100
C622        C  0.15760074  0.50519389  0.31403670     0.04900
C623        C  0.15454729  0.52805256  0.31827226    -0.07400
C624        C  0.15321321  0.54084015  0.27750801    -0.08100
C625        C  0.15519736  0.53167756  0.23201390    -0.02700
C626        C  0.15966722  0.50893268  0.22810480     0.04100
N627        N  0.16509589  0.49817294  0.18374591     0.66600
H628        H  0.16244840  0.47874209  0.26393334     0.15500
H629        H  0.14989873  0.55827168  0.28174324     0.15300
N630        N  0.15403473  0.53888907  0.36292967     0.74300
O631        O  0.20135784  0.49344775  0.17023492    -0.39100
O632        O  0.13572868  0.48672635  0.16898759    -0.39000
O633        O  0.18685754  0.54793170  0.37596534    -0.39800
O634        O  0.12007407  0.54617277  0.37877034    -0.39800
C635        C  0.16895966  0.64055101  0.16572825    -0.12100
C636        C  0.19176497  0.64722630  0.12591543     0.04900
C637        C  0.21074282  0.63127731  0.09707858    -0.07400
C638        C  0.20409066  0.60936341  0.10667418    -0.08100
C639        C  0.17654983  0.60251978  0.14267825    -0.02700
C640        C  0.16094251  0.61868833  0.17445825     0.04100
N641        N  0.13508855  0.61364983  0.21448955     0.66600
H642        H  0.15490634  0.65254296  0.18933570     0.15500
H643        H  0.22045054  0.59787683  0.08409363     0.15300
N644        N  0.23713413  0.63672363  0.05798026     0.74300
O645        O  0.15121248  0.61376789  0.25453998    -0.39100
O646        O  0.09697762  0.61757298  0.21228712    -0.39000
O647        O  0.27556988  0.63492485  0.06277946    -0.39800
O648        O  0.22285879  0.63524430  0.01708861    -0.39800
C649        C  0.15999120  0.57915547  0.64334916     0.86700
C650        C  0.17312145  0.56372542  0.60204889    -0.53600
C651        C  0.15524449  0.54356018  0.60318953     0.09600
C652        C  0.12585024  0.54075307  0.64637653     0.20500
C653        C  0.11311089  0.57936955  0.64017637    -0.54300
C654        C  0.09530493  0.55953711  0.64112375     0.09700
C655        C  0.16921338  0.56642515  0.68816781    -0.53800
C656        C  0.15166161  0.54620177  0.69006207     0.10300
H657        H  0.18965949  0.56912186  0.57088456     0.14800
H658        H  0.11014049  0.52487494  0.64890652     0.00500
H659        H  0.09537287  0.59403363  0.63494598     0.15100
H660        H  0.18809371  0.57296016  0.71599370     0.14900
C661        C  0.16478207  0.45447076  0.89237980     0.86700
C662        C  0.17031081  0.46767803  0.93827714    -0.53600
C663        C  0.14857256  0.48651211  0.93987321     0.09600
C664        C  0.12381961  0.49093442  0.89563481     0.20500
C665        C  0.11799903  0.45185891  0.88806883    -0.54300
C666        C  0.09645968  0.47065369  0.89021661     0.09700
C667        C  0.17774194  0.47066099  0.85377528    -0.53800
C668        C  0.15589111  0.48975037  0.85458949     0.10300
H669        H  0.19039539  0.46342477  0.96677580     0.14800
H670        H  0.10597282  0.50620385  0.89744674     0.00500
H671        H  0.10335259  0.43628342  0.88220630     0.15100
H672        H  0.20146446  0.46710185  0.82728348     0.14900
C673        C  0.85294683  0.45582625  0.85876426     0.86700
C674        C  0.84166134  0.47000944  0.81711486    -0.53600
C675        C  0.86225401  0.48949296  0.81523957     0.09600
C676        C  0.89208499  0.49305604  0.85621400     0.20500
C677        C  0.90000838  0.45406172  0.85554611    -0.54300
C678        C  0.92091665  0.47326555  0.85503836     0.09700
C679        C  0.84447965  0.47069520  0.90222613    -0.53800
C680        C  0.86469381  0.49004452  0.90081041     0.10300
H681        H  0.81961128  0.46495266  0.79102724     0.14800
H682        H  0.90906011  0.50862241  0.85540183     0.00500
H683        H  0.91569123  0.43853235  0.85619163     0.15100
H684        H  0.82551348  0.46667622  0.93287255     0.14900
C685        C  0.85562541  0.57906332  0.61052654     0.86700
C686        C  0.83877586  0.56400654  0.64936534    -0.53600
C687        C  0.85783666  0.54417968  0.65064298     0.09600
C688        C  0.89157757  0.54109191  0.61204722     0.20500
C689        C  0.90233792  0.57990003  0.61772514    -0.54300
C690        C  0.92069147  0.56017465  0.61939509     0.09700
C691        C  0.85119684  0.56549150  0.56477717    -0.53800
C692        C  0.87075686  0.54594108  0.56527184     0.10300
H693        H  0.81556713  0.56905305  0.67533560     0.14800
H694        H  0.90760230  0.52527209  0.61263399     0.00500
H695        H  0.91966675  0.59490878  0.62090837     0.15100
H696        H  0.83458990  0.57027864  0.53387762     0.14900
In697      In  0.18283432  0.31986308  0.88601023     1.36900
C698        C  0.10094799  0.32035023  0.88599465     0.77700
O699        O  0.17860629  0.29118404  0.93461846    -0.60700
O700        O  0.23203031  0.31103548  0.93512814    -0.51600
C701        C  0.22055440  0.29715828  0.81871154     0.70400
O702        O  0.18265732  0.29522951  0.82885022    -0.46500
C703        C  0.19597615  0.36244893  0.88968901     0.75100
O704        O  0.12243589  0.31950307  0.84833033    -0.58300
O705        O  0.19363441  0.35099202  0.92627598    -0.48400
O706        O  0.12165025  0.32103372  0.92317531    -0.54800
C707        C  0.21443329  0.29403972  0.94975125     0.85300
O708        O  0.23845411  0.31239641  0.83980028    -0.56600
O709        O  0.19331215  0.35184724  0.85167246    -0.59900
In710      In  0.33386678  0.20929145  0.63238213     1.36900
C711        C  0.41548049  0.20805886  0.63823124     0.77700
O712        O  0.33487577  0.23673463  0.68283332    -0.60700
O713        O  0.28163154  0.21653200  0.68305670    -0.51600
C714        C  0.30198725  0.23402795  0.56627607     0.70400
O715        O  0.33971055  0.23498306  0.57585972    -0.46500
C716        C  0.31843714  0.16727634  0.62149721     0.75100
O717        O  0.39672458  0.21045803  0.60011645    -0.58300
O718        O  0.31859217  0.17607675  0.66174181    -0.48400
O719        O  0.39209874  0.20583918  0.67414379    -0.54800
C720        C  0.29858768  0.23351031  0.69814305     0.85300
O721        O  0.28209433  0.21957040  0.58832007    -0.56600
O722        O  0.32432452  0.18019755  0.58774865    -0.59900
In723      In  0.83987161  0.32180282  0.89285235     1.36900
C724        C  0.92205348  0.32271812  0.89485813     0.77700
O725        O  0.83727198  0.29005754  0.85221401    -0.60700
O726        O  0.79235328  0.31393327  0.83960211    -0.51600
C727        C  0.80309673  0.30167298  0.96425941     0.70400
O728        O  0.83954119  0.29775507  0.95037442    -0.46500
C729        C  0.82631807  0.36391948  0.88033306     0.75100
O730        O  0.89986270  0.32697667  0.93083006    -0.58300
O731        O  0.83601190  0.35101190  0.84719560    -0.48400
O732        O  0.90191355  0.31834828  0.85842933    -0.54800
C733        C  0.80468810  0.29487969  0.83150590     0.85300
O734        O  0.78660370  0.31756681  0.94438801    -0.56600
O735        O  0.82244302  0.35506955  0.92018938    -0.59900
In736      In  0.67538365  0.21602959  0.64368245     1.36900
C737        C  0.59385654  0.21377898  0.63882037     0.77700
O738        O  0.68009470  0.24668598  0.60334699    -0.60700
O739        O  0.72520677  0.22239885  0.59075932    -0.51600
C740        C  0.70929876  0.23808046  0.71306236     0.70400
O741        O  0.67361553  0.24214547  0.69896117    -0.46500
C742        C  0.69079757  0.17405944  0.63322885     0.75100
O743        O  0.61324986  0.21034566  0.67615335    -0.58300
O744        O  0.68640973  0.18683023  0.59913722    -0.48400
O745        O  0.61644795  0.21878251  0.60379230    -0.54800
C746        C  0.71334441  0.24138217  0.58256023     0.85300
O747        O  0.72537319  0.22118273  0.69553405    -0.56600
O748        O  0.68884629  0.18303292  0.67339489    -0.59900
C749        C  0.36063800  0.95293478  0.85191326     0.86700
C750        C  0.35318665  0.96664768  0.80727031    -0.53600
C751        C  0.37421072  0.98592635  0.80609455     0.09600
C752        C  0.39973716  0.99012169  0.85014650     0.20500
C753        C  0.40772585  0.95108725  0.85349118    -0.54300
C754        C  0.42813418  0.97030868  0.85235246     0.09700
C755        C  0.34831634  0.96823467  0.89234005    -0.53800
C756        C  0.36896946  0.98761307  0.89212670     0.10300
H757        H  0.33358808  0.96206320  0.77844309     0.14800
H758        H  0.41669746  0.00571768  0.85001330     0.00500
H759        H  0.42363066  0.93570184  0.85586715     0.15100
H760        H  0.32608938  0.96379199  0.91987221     0.14900
C761        C  0.35431525  0.07624389  0.60278582     0.86700
C762        C  0.34459980  0.06130516  0.64537076    -0.53600
C763        C  0.36494771  0.04204342  0.64378869     0.09600
C764        C  0.39370461  0.03927221  0.60003638     0.20500
C765        C  0.40157361  0.07826047  0.60198223    -0.54300
C766        C  0.42232939  0.05909758  0.59995947     0.09700
C767        C  0.34456008  0.06207332  0.55991833    -0.53800
C768        C  0.36542454  0.04273368  0.55810298     0.10300
H769        H  0.32542995  0.06540730  0.67591144     0.14800
H770        H  0.41121803  0.02392264  0.59937349     0.00500
H771        H  0.41745048  0.09375936  0.60366804     0.15100
H772        H  0.32355469  0.06713526  0.53291066     0.14900
C773        C  0.67252672  0.95753578  0.85555000     0.86700
C774        C  0.68465931  0.97171847  0.89794880    -0.53600
C775        C  0.66291229  0.99058833  0.90194887     0.09600
C776        C  0.63117582  0.99382434  0.86286544     0.20500
C777        C  0.62590191  0.95468543  0.86140155    -0.54300
C778        C  0.60443812  0.97343934  0.86499039     0.09700
C779        C  0.67876762  0.97289080  0.81345238    -0.53800
C780        C  0.65577096  0.99143564  0.81620361     0.10300
H781        H  0.70826076  0.96764424  0.92282308     0.14800
H782        H  0.61328807  0.00906588  0.86579403     0.00500
H783        H  0.61075333  0.93894649  0.86091053     0.15100
H784        H  0.69946003  0.96955528  0.78378201     0.14900
C785        C  0.66705951  0.08165123  0.61116876     0.86700
C786        C  0.67911207  0.06767474  0.56779254    -0.53600
C787        C  0.66001094  0.04770978  0.56605368     0.09600
C788        C  0.63075752  0.04378195  0.60937430     0.20500
C789        C  0.61974282  0.08262662  0.61150754    -0.54300
C790        C  0.60064660  0.06303768  0.61109223     0.09700
C791        C  0.67712212  0.06679399  0.65318863    -0.53800
C792        C  0.65807291  0.04717567  0.65251946     0.10300
H793        H  0.70123432  0.07315772  0.54118332     0.14800
H794        H  0.61409791  0.02817727  0.60946687     0.00500
H795        H  0.60267199  0.09775134  0.61187377     0.15100
H796        H  0.69664116  0.07097097  0.68232726     0.14900
In797      In  0.18241065  0.71275794  0.59834230     1.36900
C798        C  0.10138323  0.71406256  0.59266973     0.77700
O799        O  0.18329257  0.74260656  0.55448410    -0.60700
O800        O  0.22629499  0.71763888  0.53792131    -0.51600
C801        C  0.22134898  0.73563315  0.66255171     0.70400
O802        O  0.18298718  0.73696428  0.65728631    -0.46500
C803        C  0.19217377  0.67065153  0.61509453     0.75100
O804        O  0.12070103  0.71767226  0.62995408    -0.58300
O805        O  0.19674225  0.67832420  0.57413666    -0.48400
O806        O  0.12393734  0.70954289  0.55710007    -0.54800
C807        C  0.21394473  0.73663530  0.52974635     0.85300
O808        O  0.23916151  0.72159293  0.63680959    -0.56600
O809        O  0.18457099  0.68462373  0.64661589    -0.59900
In810      In  0.34398615  0.81897103  0.84324071     1.36900
C811        C  0.42493274  0.82218308  0.84506441     0.77700
O812        O  0.34977590  0.79449082  0.78475092    -0.60700
O813        O  0.29317432  0.81126784  0.79612091    -0.51600
C814        C  0.30814768  0.79309730  0.90645548     0.70400
O815        O  0.34163010  0.78822830  0.88567527    -0.46500
C816        C  0.32818016  0.86109137  0.84885792     0.75100
O817        O  0.40277088  0.81715343  0.88055359    -0.58300
O818        O  0.32712436  0.85076225  0.81039909    -0.48400
O819        O  0.40533805  0.82542899  0.80791266    -0.54800
C820        C  0.31232344  0.79628498  0.77461263     0.85300
O821        O  0.29512067  0.81183678  0.89744681    -0.56600
O822        O  0.33497135  0.84950669  0.88436988    -0.59900
In823      In  0.84157237  0.71403353  0.59902747     1.36900
C824        C  0.92326399  0.71422263  0.59984851     0.77700
O825        O  0.83999285  0.74004000  0.65241455    -0.60700
O826        O  0.78687561  0.72006002  0.64798699    -0.51600
C827        C  0.81034918  0.73852670  0.53257145     0.70400
O828        O  0.84478844  0.74252070  0.55022609    -0.46500
C829        C  0.82924955  0.67154769  0.60189100     0.75100
O830        O  0.90296131  0.71183561  0.56269684    -0.58300
O831        O  0.83331007  0.68329712  0.63801708    -0.48400
O832        O  0.90147563  0.71626157  0.63697569    -0.54800
C833        C  0.80348240  0.73641442  0.66645887     0.85300
O834        O  0.79371661  0.72109840  0.54623641    -0.56600
O835        O  0.83037073  0.68174981  0.56346998    -0.59900
In836      In  0.68395676  0.82190057  0.85442293     1.36900
C837        C  0.60230536  0.82274565  0.85715220     0.77700
O838        O  0.68497660  0.79149451  0.89724042    -0.60700
O839        O  0.73270691  0.81473929  0.90560207    -0.51600
C840        C  0.71966311  0.79914290  0.78545506     0.70400
O841        O  0.68301703  0.79602077  0.79972183    -0.46500
C842        C  0.69649764  0.86476136  0.85499037     0.75100
O843        O  0.62388742  0.82420701  0.81967963    -0.58300
O844        O  0.69301018  0.85387870  0.89249459    -0.48400
O845        O  0.62277093  0.82070048  0.89414644    -0.54800
C846        C  0.71907225  0.79604700  0.91516340     0.85300
O847        O  0.73685336  0.81548432  0.80329615    -0.56600
O848        O  0.69542163  0.85345862  0.81778815    -0.59900
C849        C  0.77290132  0.78926682  0.97268121    -0.12100
C850        C  0.74220431  0.78078467  0.94410796     0.04900
C851        C  0.73631643  0.75806481  0.94232932    -0.07400
C852        C  0.75981104  0.74470110  0.47066750    -0.08100
C853        C  0.78976073  0.75327794  0.00011436    -0.02700
C854        C  0.79672796  0.77588708  0.00041838     0.04100
N855        N  0.82634728  0.78586598  0.03000455     0.66600
H856        H  0.77830378  0.80666081  0.97409270     0.15500
H857        H  0.75449646  0.72729511  0.46943205     0.15300
N858        N  0.70823564  0.74803227  0.91086468     0.74300
O859        O  0.86023590  0.79188770  0.01153035    -0.39100
O860        O  0.81358368  0.79519847  0.06724998    -0.39000
O861        O  0.72268423  0.73957341  0.87338323    -0.39800
O862        O  0.67433850  0.74109245  0.42753155    -0.39800
C863        C  0.79966937  0.77192812  0.70531315    -0.12100
C864        C  0.78190169  0.75144129  0.69908065     0.04900
C865        C  0.74327687  0.74697071  0.72103728    -0.07400
C866        C  0.72356176  0.76302813  0.74802601    -0.08100
C867        C  0.74110532  0.78365607  0.75359230    -0.02700
C868        C  0.77978186  0.78802179  0.73172768     0.04100
N869        N  0.79893596  0.80881248  0.73395517     0.66600
H870        H  0.82909001  0.77591451  0.68816856     0.15500
H871        H  0.69415102  0.75911829  0.76527530     0.15300
N872        N  0.72341099  0.72641151  0.71690576     0.74300
O873        O  0.82850749  0.81139568  0.76157549    -0.39100
O874        O  0.79697532  0.82090566  0.69837793    -0.39000
O875        O  0.72325913  0.71393429  0.75198652    -0.39800
O876        O  0.69522387  0.72437338  0.68727982    -0.39800
C877        C  0.53871751  0.83015773  0.81447654    -0.12100
C878        C  0.55681265  0.82353559  0.85636106     0.04900
C879        C  0.53088559  0.81765645  0.89497510    -0.07400
C880        C  0.48822666  0.81763690  0.89003426    -0.08100
C881        C  0.47020236  0.82365230  0.84770958    -0.02700
C882        C  0.49603555  0.83047448  0.80977670     0.04100
N883        N  0.48011705  0.83823729  0.76656618     0.66600
H884        H  0.55795525  0.83530671  0.78461581     0.15500
H885        H  0.46901483  0.81258028  0.91998995     0.15300
N886        N  0.54665922  0.81128922  0.93928899     0.74300
O887        O  0.47824030  0.85845185  0.76070210    -0.39100
O888        O  0.48267110  0.82612805  0.73062703    -0.39000
O889        O  0.54453625  0.82468468  0.97303214    -0.39800
O890        O  0.54765501  0.79134927  0.94865126    -0.39800
C891        C  0.03529515  0.71573091  0.63645271    -0.12100
C892        C  0.05593512  0.71472560  0.59257254     0.04900
C893        C  0.03245275  0.71410752  0.55126949    -0.07400
C894        C  0.98945044  0.71413865  0.55502584    -0.08100
C895        C  0.96882762  0.71468719  0.59901254    -0.02700
C896        C  0.99243016  0.71564116  0.64025493     0.04100
N897        N  0.97410277  0.71592824  0.68649518     0.66600
H898        H  0.05260475  0.71618325  0.66885159     0.15500
H899        H  0.97201863  0.71366991  0.52273096     0.15300
N900        N  0.05106584  0.71368087  0.50518777     0.74300
O901        O  0.97278390  0.69842427  0.70921868    -0.39100
O902        O  0.97404460  0.73355038  0.70926727    -0.39000
O903        O  0.05105274  0.69601557  0.48258974    -0.39800
O904        O  0.05289085  0.73113809  0.48232101    -0.39800
C905        C  0.25041683  0.78638020  0.96247684    -0.12100
C906        C  0.28476131  0.77814008  0.93760025     0.04900
C907        C  0.29394821  0.75581827  0.44137545    -0.07400
C908        C  0.26945320  0.74266923  0.47047585    -0.08100
C909        C  0.23556762  0.75102044  0.49598313    -0.02700
C910        C  0.22576104  0.77321311  0.49124105     0.04100
N911        N  0.19147848  0.78301298  0.51552639     0.66600
H912        H  0.24238497  0.80341878  0.95974866     0.15500
H913        H  0.27745214  0.72562611  0.47326942     0.15300
N914        N  0.32701736  0.74585758  0.41529271     0.74300
O915        O  0.19838013  0.79408421  0.05215225    -0.39100
O916        O  0.15970415  0.78714006  0.49238128    -0.39000
O917        O  0.35916277  0.74087036  0.43693739    -0.39800
O918        O  0.31854572  0.73548198  0.37828772    -0.39800
C919        C  0.24765982  0.78007832  0.74924682    -0.12100
C920        C  0.29065724  0.78100315  0.74388986     0.04900
C921        C  0.31081259  0.76587231  0.71376838    -0.07400
C922        C  0.28741082  0.75106097  0.68834122    -0.08100
C923        C  0.24433739  0.75028852  0.69357177    -0.02700
C924        C  0.22453230  0.76467533  0.72559491     0.04100
N925        N  0.18157200  0.76314107  0.73729438     0.66600
H926        H  0.23155754  0.79083952  0.77398258     0.15500
H927        H  0.30336913  0.74001623  0.66412575     0.15300
N928        N  0.35467878  0.76485139  0.70877638     0.74300
O929        O  0.17097343  0.75283776  0.77393740    -0.39100
O930        O  0.15781450  0.77763318  0.72258311    -0.39000
O931        O  0.37322647  0.75000432  0.73003752    -0.39800
O932        O  0.37158529  0.77285173  0.67231211    -0.39800
C933        C  0.66051709  0.99634494  0.98832958    -0.12100
C934        C  0.66628814  0.00504146  0.94346339     0.04900
C935        C  0.67457811  0.02719106  0.93882612    -0.07400
C936        C  0.67310381  0.04074394  0.47893438    -0.08100
C937        C  0.66506140  0.03229862  0.52465863    -0.02700
C938        C  0.66061189  0.00941335  0.52874316     0.04100
N939        N  0.65824697  0.99854710  0.57300525     0.66600
H940        H  0.65567949  0.97901865  0.99217125     0.15500
H941        H  0.67778717  0.05790608  0.47385894     0.15300
N942        N  0.68708583  0.03567670  0.89391452     0.74300
O943        O  0.62404655  0.99031067  0.58549157    -0.39100
O944        O  0.69072780  0.98982824  0.58747687    -0.39000
O945        O  0.66035960  0.04375888  0.86770066    -0.39800
O946        O  0.72138935  0.02992857  0.87597248    -0.39800
C947        C  0.69288158  0.01318180  0.75604993    -0.12100
C948        C  0.65504592  0.00703477  0.77654179     0.04900
C949        C  0.61827565  0.01437029  0.75587923    -0.07400
C950        C  0.62041683  0.02669989  0.71462792    -0.08100
C951        C  0.65833164  0.03255386  0.69388009    -0.02700
C952        C  0.69501247  0.02592841  0.71561087     0.04100
N953        N  0.73488956  0.03142940  0.69695882     0.66600
H954        H  0.72149468  0.00790044  0.77161169     0.15500
H955        H  0.59188071  0.03213745  0.69912000     0.15300
N956        N  0.57838589  0.00900419  0.77460616     0.74300
O957        O  0.75465536  0.04635617  0.71703940    -0.39100
O958        O  0.75492191  0.01705539  0.67449164    -0.39000
O959        O  0.55897898  0.02331104  0.79801358    -0.39800
O960        O  0.55794498  0.99471138  0.75337662    -0.39800
C961        C  0.70222410  0.92418086  0.89236588    -0.12100
C962        C  0.69150224  0.93492545  0.85095499     0.04900
C963        C  0.68667414  0.92211452  0.80959963    -0.07400
C964        C  0.69112172  0.89952127  0.81134187    -0.08100
C965        C  0.69905510  0.88887524  0.85385438    -0.02700
C966        C  0.70576361  0.90168882  0.89440150     0.04100
N967        N  0.71406252  0.89245625  0.93912641     0.66600
H968        H  0.70457443  0.93287694  0.92542968     0.15500
H969        H  0.68592533  0.89019543  0.77959774     0.15300
N970        N  0.67584371  0.93158023  0.76570769     0.74300
O971        O  0.75075700  0.89300837  0.95295615    -0.39100
O972        O  0.68519272  0.89210133  0.96977029    -0.39000
O973        O  0.70383997  0.93593213  0.73553377    -0.39800
O974        O  0.63936439  0.93778117  0.75911356    -0.39800
C975        C  0.53721550  0.04792874  0.57594529    -0.12100
C976        C  0.55497393  0.06076723  0.61092386     0.04900
C977        C  0.52868564  0.07181428  0.64348779    -0.07400
C978        C  0.48597916  0.07047550  0.63916278    -0.08100
C979        C  0.46806177  0.05827217  0.60330757    -0.02700
C980        C  0.49422668  0.04649547  0.57178164     0.04100
N981        N  0.47834744  0.03370873  0.53423977     0.66600
H982        H  0.55700804  0.03935870  0.55056367     0.15500
H983        H  0.46637608  0.07907022  0.66470171     0.15300
N984        N  0.54426535  0.08354844  0.68277435     0.74300
O985        O  0.47805010  0.04177800  0.49348674    -0.39100
O986        O  0.47933837  0.01336710  0.53801828    -0.39000
O987        O  0.54241021  0.10395899  0.68230730    -0.39800
O988        O  0.54480238  0.07412666  0.72210485    -0.39800
C989        C  0.49123765  0.98346823  0.89136637    -0.12100
C990        C  0.47349433  0.97168507  0.85425937     0.04900
C991        C  0.49951416  0.96054710  0.82143896    -0.07400
C992        C  0.54191269  0.96202086  0.82549941    -0.08100
C993        C  0.55944149  0.97352009  0.86232306    -0.02700
C994        C  0.53422163  0.98392560  0.89619658     0.04100
N995        N  0.55182086  0.99270862  0.93790928     0.66600
H996        H  0.47168640  0.99127313  0.91778574     0.15500
H997        H  0.56156955  0.95369029  0.79968243     0.15300
N998        N  0.48432802  0.94684815  0.78485848     0.74300
O999        O  0.56288769  0.01230157  0.93862442    -0.39100
O1000       O  0.56612369  0.97988270  0.96786951    -0.39000
O1001       O  0.49110275  0.95242594  0.74267400    -0.39800
O1002       O  0.48159393  0.92685445  0.79326561    -0.39800
C1003       C  0.33347678  0.00590057  0.74750695    -0.12100
C1004       C  0.37220399  0.00092173  0.76542801     0.04900
C1005       C  0.40782026  0.00945078  0.74245146    -0.07400
C1006       C  0.40401676  0.02229518  0.70255963    -0.08100
C1007       C  0.36555030  0.02726107  0.68468465    -0.02700
C1008       C  0.32968562  0.01899236  0.70772805     0.04100
N1009       N  0.28933788  0.02280084  0.69057121     0.66600
H1010       H  0.30565237  0.99946094  0.76453677     0.15500
H1011       H  0.43189994  0.02870552  0.68555914     0.15300
N1012       N  0.44845870  0.00436972  0.75663457     0.74300
O1013       O  0.27301678  0.00829483  0.66557965    -0.39100
O1014       O  0.26606697  0.03569902  0.71329176    -0.39000
O1015       O  0.46981335  0.99243972  0.72944626    -0.39800
O1016       O  0.46697018  0.01795261  0.78196933    -0.39800
C1017       C  0.36806819  0.99290607  0.97838937    -0.12100
C1018       C  0.36707462  0.00236248  0.93363557     0.04900
C1019       C  0.36501851  0.02516034  0.93048838    -0.07400
C1020       C  0.36447593  0.03768051  0.47161169    -0.08100
C1021       C  0.36488673  0.02818331  0.51636778    -0.02700
C1022       C  0.36654257  0.00535404  0.51949583     0.04100
N1023       N  0.36479374  0.99419992  0.56347223     0.66600
H1024       H  0.37013512  0.97540059  0.98176833     0.15500
H1025       H  0.36403496  0.05521401  0.46817397     0.15300
N1026       N  0.36174786  0.03608966  0.88656535     0.74300
O1027       O  0.33034160  0.98687912  0.57770105    -0.39100
O1028       O  0.39710996  0.98503479  0.57715089    -0.39000
O1029       O  0.32670081  0.04294739  0.87532343    -0.39800
O1030       O  0.39333377  0.04563406  0.87005190    -0.39800
C1031       C  0.32305549  0.92060949  0.81639489    -0.12100
C1032       C  0.34134185  0.93027940  0.85570496     0.04900
C1033       C  0.34718413  0.91701477  0.89600576    -0.07400
C1034       C  0.33876698  0.89485381  0.89381368    -0.08100
C1035       C  0.32572344  0.88499837  0.85224840    -0.02700
C1036       C  0.31601584  0.89833147  0.81385077     0.04100
N1037       N  0.30068991  0.88970273  0.77091787     0.66600
H1038       H  0.31645406  0.92976817  0.78501684     0.15500
H1039       H  0.34571749  0.88501447  0.92431098     0.15300
N1040       N  0.36449223  0.92512174  0.93853971     0.74300
O1041       O  0.26262156  0.89146894  0.76353928    -0.39100
O1042       O  0.32528970  0.88808310  0.73592185    -0.39000
O1043       O  0.34080399  0.92740565  0.97417938    -0.39800
O1044       O  0.40236166  0.92195612  0.94514836    -0.39800
C1045       C  0.68492441  0.14184122  0.58161340    -0.12100
C1046       C  0.69461547  0.15036133  0.62584014     0.04900
C1047       C  0.70336367  0.13582316  0.66230896    -0.07400
C1048       C  0.69871266  0.11361807  0.65508683    -0.08100
C1049       C  0.68450669  0.10487490  0.61239702    -0.02700
C1050       C  0.67926616  0.11959289  0.57453201     0.04100
N1051       N  0.66603704  0.11271764  0.52915953     0.66600
H1052       H  0.67885271  0.15268417  0.55250027     0.15500
H1053       H  0.70372397  0.10371500  0.68580600     0.15300
N1054       N  0.71560705  0.14303281  0.70777975     0.74300
O1055       O  0.62859228  0.11519785  0.51930750    -0.39100
O1056       O  0.69246551  0.11227923  0.49576081    -0.39000
O1057       O  0.68912429  0.14271776  0.74111490    -0.39800
O1058       O  0.75326230  0.14164802  0.71761636    -0.39800
C1059       C  0.79757795  0.26671218  0.50591821    -0.12100
C1060       C  0.78095853  0.28734902  0.99791063     0.04900
C1061       C  0.74214669  0.29261107  0.01868465    -0.07400
C1062       C  0.72077489  0.27728030  0.54563948    -0.08100
C1063       C  0.73690962  0.25661716  0.55260535    -0.02700
C1064       C  0.77592401  0.25139225  0.53290645     0.04100
N1065       N  0.79382989  0.23058206  0.53993753     0.66600
H1066       H  0.82705157  0.26216101  0.49020598     0.15500
H1067       H  0.69109012  0.28171864  0.56137913     0.15300
N1068       N  0.72361384  0.31337823  0.01376862     0.74300
O1069       O  0.78229912  0.21484466  0.51485186    -0.39100
O1070       O  0.81158168  0.22686704  0.57815715    -0.39000
O1071       O  0.69313856  0.31493586  0.98714912    -0.39800
O1072       O  0.72658775  0.32668133  0.04746958    -0.39800
C1073       C  0.74963515  0.28824159  0.77474684    -0.12100
C1074       C  0.78147131  0.27967347  0.80132814     0.04900
C1075       C  0.78831546  0.25700470  0.79972376    -0.07400
C1076       C  0.76352040  0.24378503  0.77179855    -0.08100
C1077       C  0.73181562  0.25248100  0.74524840    -0.02700
C1078       C  0.72515350  0.27508613  0.74668370     0.04100
N1079       N  0.69575915  0.28536486  0.71764574     0.66600
H1080       H  0.74388973  0.30559564  0.77496741     0.15500
H1081       H  0.76940336  0.22644000  0.77068399     0.15300
N1082       N  0.81977104  0.24688370  0.82609777     0.74300
O1083       O  0.66225747  0.29172373  0.73650726    -0.39100
O1084       O  0.70868791  0.29451374  0.68044766    -0.39000
O1085       O  0.80921893  0.23664197  0.86283402    -0.39800
O1086       O  0.85294333  0.24169404  0.80480221    -0.39800
C1087       C  0.33418702  0.13566666  0.57158655    -0.12100
C1088       C  0.31650337  0.14360716  0.61359228     0.04900
C1089       C  0.30267921  0.12862633  0.64786518    -0.07400
C1090       C  0.31122586  0.10659308  0.64166479    -0.08100
C1091       C  0.33462734  0.09886376  0.60260846    -0.02700
C1092       C  0.34369297  0.11380108  0.56574387     0.04100
N1093       N  0.36482558  0.10760550  0.52302590     0.66600
H1094       H  0.34384212  0.14680155  0.54380991     0.15500
H1095       H  0.30042450  0.09595571  0.66960252     0.15300
N1096       N  0.27989212  0.13518476  0.68917564     0.74300
O1097       O  0.34377116  0.10520573  0.98651979    -0.39100
O1098       O  0.40241567  0.11267537  0.51799574    -0.39000
O1099       O  0.24149413  0.13170309  0.69060191    -0.39800
O1100       O  0.29862665  0.13656415  0.72755835    -0.39800
C1101       C  0.52677555  0.20695772  0.67910953    -0.12100
C1102       C  0.54837228  0.21196790  0.63719991     0.04900
C1103       C  0.52578073  0.21480044  0.59562630    -0.07400
C1104       C  0.48283723  0.21319138  0.59743114    -0.08100
C1105       C  0.46115209  0.20852418  0.63950449    -0.02700
C1106       C  0.48383187  0.20505882  0.68075078     0.04100
N1107       N  0.46451273  0.19911493  0.72449948     0.66600
H1108       H  0.54340176  0.20432315  0.71144090     0.15500
H1109       H  0.46629037  0.21573550  0.56501265     0.15300
N1110       N  0.54527816  0.21899978  0.55095784     0.74300
O1111       O  0.46458872  0.17938150  0.73581250    -0.39100
O1112       O  0.46192369  0.21319913  0.75684391    -0.39000
O1113       O  0.54791657  0.20365283  0.52145842    -0.39800
O1114       O  0.54531657  0.23817443  0.53582815    -0.39800
C1115       C  0.98813132  0.31673160  0.85185282    -0.12100
C1116       C  0.96785170  0.32246411  0.89426791     0.04900
C1117       C  0.99202976  0.32733078  0.93392360    -0.07400
C1118       C  0.03508542  0.32641823  0.92993547    -0.08100
C1119       C  0.05524378  0.32079118  0.88736373    -0.02700
C1120       C  0.03107042  0.31581957  0.84790344     0.04100
N1121       N  0.04894287  0.30921405  0.80369964     0.66600
H1122       H  0.97044632  0.31268196  0.82088210     0.15500
H1123       H  0.05296747  0.33036670  0.96082676     0.15300
N1124       N  0.97410675  0.33335170  0.97851837     0.74300
O1125       O  0.04974566  0.28924373  0.79401366    -0.39100
O1126       O  0.04927717  0.32256529  0.77019481    -0.39000
O1127       O  0.97379633  0.31956459  0.01118594    -0.39800
O1128       O  0.97332916  0.35318586  0.98947843    -0.39800
C1129       C  0.23877330  0.24619923  0.52811706    -0.12100
C1130       C  0.28127255  0.24899159  0.03402783     0.04900
C1131       C  0.30130665  0.26658095  0.01136199    -0.07400
C1132       C  0.27834288  0.28110788  0.98524077    -0.08100
C1133       C  0.23575480  0.27844536  0.97989644    -0.02700
C1134       C  0.21603820  0.26039875  0.00104085     0.04100
N1135       N  0.17327273  0.25582190  0.99535866     0.66600
H1136       H  0.22257206  0.23271458  0.54482040     0.15500
H1137       H  0.29452234  0.29450024  0.96814789     0.15300
N1138       N  0.34477064  0.27001566  0.01344891     0.74300
O1139       O  0.16348358  0.24151798  0.46569049    -0.39100
O1140       O  0.14872936  0.25962275  0.02959140    -0.39000
O1141       O  0.36685802  0.26461234  0.97808828    -0.39800
O1142       O  0.35778877  0.28468647  0.04048822    -0.39800
C1143       C  0.21770557  0.26957482  0.75597259    -0.12100
C1144       C  0.24183429  0.28185631  0.78651271     0.04900
C1145       C  0.28459395  0.27755975  0.78853547    -0.07400
C1146       C  0.30201157  0.26147513  0.75976599    -0.08100
C1147       C  0.27775258  0.24909228  0.72969894    -0.02700
C1148       C  0.23502138  0.25324046  0.72785053     0.04100
N1149       N  0.20876651  0.24170376  0.69670933     0.66600
H1150       H  0.18471748  0.27256060  0.75402469     0.15500
H1151       H  0.33498086  0.25839027  0.76161700     0.15300
N1152       N  0.31057858  0.28824286  0.82130111     0.74300
O1153       O  0.18576446  0.22703445  0.71366036    -0.39100
O1154       O  0.19845130  0.25077928  0.65904985    -0.39000
O1155       O  0.31925760  0.27845028  0.85869186    -0.39800
O1156       O  0.33502284  0.30266369  0.80607168    -0.39800
C1157       C  0.82270256  0.61165457  0.57072319    -0.12100
C1158       C  0.83810355  0.60217541  0.61172985     0.04900
C1159       C  0.84269822  0.61588931  0.65183315    -0.07400
C1160       C  0.83675321  0.63818074  0.64803381    -0.08100
C1161       C  0.82648788  0.64767847  0.60528923    -0.02700
C1162       C  0.81737587  0.63400978  0.56690006     0.04100
N1163       N  0.80346943  0.64228316  0.52321390     0.66600
H1164       H  0.81641808  0.60220765  0.53945548     0.15500
H1165       H  0.84266593  0.64828974  0.67871181     0.15300
N1166       N  0.85545643  0.60791991  0.69634592     0.74300
O1167       O  0.82923361  0.64395602  0.48937060    -0.39100
O1168       O  0.76575302  0.64021292  0.51405233    -0.39000
O1169       O  0.89232355  0.61110032  0.70800376    -0.39800
O1170       O  0.82831971  0.60572943  0.72862626    -0.39800
C1171       C  0.90343861  0.51125338  0.95909707    -0.12100
C1172       C  0.86511291  0.50500264  0.94194456     0.04900
C1173       C  0.82886117  0.51200043  0.96628657    -0.07400
C1174       C  0.83190952  0.52491200  0.50668696    -0.08100
C1175       C  0.87026176  0.53101633  0.52407945    -0.02700
C1176       C  0.90647371  0.52401865  0.49975590     0.04100
N1177       N  0.94663213  0.53034566  0.51404872     0.66600
H1178       H  0.93165287  0.50586888  0.94109359     0.15500
H1179       H  0.80374500  0.53039832  0.52464126     0.15300
N1180       N  0.78862767  0.50701906  0.94989733     0.74300
O1181       O  0.96768864  0.51685536  0.53640289    -0.39100
O1182       O  0.96537899  0.54466077  0.49021475    -0.39000
O1183       O  0.76735171  0.49311793  0.97212339    -0.39800
O1184       O  0.77013836  0.52121437  0.92662219    -0.39800
C1185       C  0.85539923  0.53946563  0.73727610    -0.12100
C1186       C  0.85450685  0.52986890  0.69235898     0.04900
C1187       C  0.85498262  0.50706191  0.68876373    -0.07400
C1188       C  0.85768095  0.49462986  0.72937037    -0.08100
C1189       C  0.85896937  0.50415913  0.77427163    -0.02700
C1190       C  0.85732984  0.52699954  0.77808143     0.04100
N1191       N  0.85602646  0.53802398  0.82249307     0.66600
H1192       H  0.85570041  0.55701384  0.74094038     0.15500
H1193       H  0.85912204  0.47710969  0.72539862     0.15300
N1194       N  0.85110574  0.49599346  0.64477342     0.74300
O1195       O  0.88832536  0.54747186  0.83584016    -0.39100
O1196       O  0.82160432  0.54496956  0.83771885    -0.39000
O1197       O  0.88243087  0.48652072  0.62736899    -0.39800
O1198       O  0.81586047  0.48907291  0.63407394    -0.39800
C1199       C  0.81581199  0.42464126  0.90113838    -0.12100
C1200       C  0.83408763  0.43291432  0.85945443     0.04900
C1201       C  0.84135048  0.41798067  0.82171244    -0.07400
C1202       C  0.83525218  0.39579978  0.82872981    -0.08100
C1203       C  0.82273432  0.38759415  0.87266583    -0.02700
C1204       C  0.81090075  0.40244511  0.90849936     0.04100
N1205       N  0.79547746  0.39559784  0.95355130     0.66600
H1206       H  0.80730129  0.43496779  0.93078821     0.15500
H1207       H  0.84314325  0.38476819  0.79985697     0.15300
N1208       N  0.85738045  0.42458902  0.77670396     0.74300
O1209       O  0.81995588  0.39549228  0.48745202    -0.39100
O1210       O  0.75738774  0.39771530  0.96258488    -0.39000
O1211       O  0.89484529  0.42082953  0.76673321    -0.39800
O1212       O  0.83251986  0.42609238  0.74332549    -0.39800
C1213       C  0.03655703  0.48677928  0.85190176    -0.12100
C1214       C  0.05133560  0.47154103  0.88349867     0.04900
C1215       C  0.02286038  0.45734578  0.90607978    -0.07400
C1216       C  0.98098531  0.45914317  0.89714036    -0.08100
C1217       C  0.96607842  0.47384803  0.86419052    -0.02700
C1218       C  0.99466855  0.48785797  0.84138845     0.04100
N1219       N  0.98313463  0.50194730  0.80453581     0.66600
H1220       H  0.05813116  0.49741548  0.83321365     0.15500
H1221       H  0.95975485  0.44854573  0.91636398     0.15300
N1222       N  0.03493515  0.44117086  0.93877060     0.74300
O1223       O  0.97973554  0.52185763  0.81400449    -0.39100
O1224       O  0.99310299  0.49642466  0.76292146    -0.39000
O1225       O  0.03716091  0.42183732  0.92426176    -0.39800
O1226       O  0.02633757  0.44434478  0.98184428    -0.39800
C1227       C  0.19465507  0.42120123  0.93098318    -0.12100
C1228       C  0.18478814  0.43200758  0.88919766     0.04900
C1229       C  0.18479106  0.41951453  0.84680121    -0.07400
C1230       C  0.19250696  0.39728951  0.84795750    -0.08100
C1231       C  0.19831038  0.38644476  0.89039012    -0.02700
C1232       C  0.20100187  0.39886024  0.93217222     0.04100
N1233       N  0.20790169  0.38923556  0.97689187     0.66600
H1234       H  0.19410671  0.42945273  0.96479992     0.15500
H1235       H  0.19061519  0.38816289  0.81513931     0.15300
N1236       N  0.17355514  0.42838507  0.80254336     0.74300
O1237       O  0.24335560  0.39099630  0.99395411    -0.37500
O1238       O  0.17737547  0.38667972  0.00477646    -0.39000
O1239       O  0.20176458  0.43145404  0.77185452    -0.39800
O1240       O  0.13726329  0.42525525  0.78880049    -0.39800
C1241       C  0.99062682  0.56604984  0.58796662    -0.12100
C1242       C  0.96531554  0.55787546  0.62398142     0.04900
C1243       C  0.98301617  0.54865108  0.66398111    -0.07400
C1244       C  0.02585206  0.54827786  0.66779026    -0.08100
C1245       C  0.05117361  0.55692345  0.63218278    -0.02700
C1246       C  0.03329096  0.56535554  0.59115509     0.04100
N1247       N  0.05766969  0.57290902  0.55199336     0.66600
H1248       H  0.97703090  0.57320463  0.55701783     0.15500
H1249       H  0.03937833  0.54198308  0.69967241     0.15300
N1250       N  0.95811397  0.54065821  0.70205839     0.74300
O1251       O  0.06336618  0.56024387  0.51737866    -0.39100
O1252       O  0.05992421  0.59304547  0.54500105    -0.39000
O1253       O  0.95593394  0.55147680  0.73991081    -0.39800
O1254       O  0.94973614  0.52072262  0.70296249    -0.39800
C1255       C  0.11942528  0.51595492  0.55302691    -0.12100
C1256       C  0.15524074  0.52840997  0.56130640     0.04900
C1257       C  0.18861928  0.52669312  0.52779011    -0.07400
C1258       C  0.18518410  0.51331667  0.98816757    -0.08100
C1259       C  0.14973276  0.50126993  0.98070928    -0.02700
C1260       C  0.11684619  0.50241802  0.01340574     0.04100
N1261       N  0.08162699  0.48890328  0.00778931     0.66600
H1262       H  0.09279414  0.51685811  0.57647682     0.15500
H1263       H  0.21090939  0.51214512  0.96301612     0.15300
N1264       N  0.22696837  0.53771418  0.53290943     0.74300
O1265       O  0.08508293  0.46899268  0.01640826    -0.39100
O1266       O  0.05293013  0.49522608  0.98198778    -0.39000
O1267       O  0.25745999  0.52673929  0.54572850    -0.39800
O1268       O  0.23384542  0.55401653  0.50723253    -0.39800
C1269       C  0.16036795  0.49620722  0.76858414    -0.12100
C1270       C  0.15759080  0.50519426  0.81403059     0.04900
C1271       C  0.15453961  0.52805288  0.81826570    -0.07400
C1272       C  0.15319920  0.54084011  0.77750172    -0.08100
C1273       C  0.15517990  0.53167724  0.73200781    -0.02700
C1274       C  0.15964949  0.50893237  0.72809844     0.04100
N1275       N  0.16508237  0.49817306  0.68373951     0.66600
H1276       H  0.16243124  0.47874188  0.76392770     0.15500
H1277       H  0.14988627  0.55827141  0.78173717     0.15300
N1278       N  0.15404154  0.53889000  0.86292219     0.74300
O1279       O  0.20134614  0.49345147  0.67022881    -0.39100
O1280       O  0.13571912  0.48672415  0.66897937    -0.39000
O1281       O  0.18687114  0.54792939  0.87594659    -0.39800
O1282       O  0.12008725  0.54617748  0.87877288    -0.39800
C1283       C  0.16895426  0.64054910  0.66573073    -0.12100
C1284       C  0.19177192  0.64722375  0.62592647     0.04900
C1285       C  0.21075568  0.63127453  0.59709588    -0.07400
C1286       C  0.20409546  0.60936070  0.60668516    -0.08100
C1287       C  0.17654346  0.60251822  0.64267897    -0.02700
C1288       C  0.16093107  0.61868667  0.67445608     0.04100
N1289       N  0.13506670  0.61364838  0.71447907     0.66600
H1290       H  0.15489632  0.65254148  0.68933410     0.15500
H1291       H  0.22045743  0.59787411  0.58411017     0.15300
N1292       N  0.23716188  0.63672052  0.55801039     0.74300
O1293       O  0.15118085  0.61376427  0.75453485    -0.39100
O1294       O  0.09695714  0.61757321  0.71226529    -0.39000
O1295       O  0.27559513  0.63491947  0.56282744    -0.39800
O1296       O  0.22290098  0.63524378  0.51711150    -0.39800
loop_ 
_geom_bond_atom_site_label_1 
_geom_bond_atom_site_label_2 
_geom_bond_distance 
_geom_bond_site_symmetry_2 
_ccdc_geom_bond_type 
C1            C2   1.558       .  S
C1            C7   1.535       .  S
C1            C5   1.525       .  S
C1          C639   1.538       .  S
C2            H9   1.077       .  S
C2            C3   1.372       .  D
C3            C4   1.544       .  S
C3          C608   1.508       .  S
C4            C8   1.547       .  S
C4            C6   1.537       .  S
C4           H10   1.106       .  S
C5           H11   1.087       .  S
C5            C6   1.353       .  D
C6          C597   1.467       .  S
C7           H12   1.086       .  S
C7            C8   1.372       .  D
C8          C625   1.501       .  S
C13          C14   1.546       .  S
C13          C19   1.538       .  S
C13          C17   1.532       .  S
C13         C580   1.534       .  S
C14          H21   1.084       .  S
C14          C15   1.361       .  D
C15          C16   1.532       .  S
C15         C611   1.471       .  S
C16          C20   1.544       .  S
C16          C18   1.542       .  S
C16          H22   1.108       .  S
C17          H23   1.085       .  S
C17          C18   1.356       .  D
C18         C566   1.481       .  S
C19          H24   1.084       .  S
C19          C20   1.377       .  D
C20         C622   1.499       .  S
C25          C26   1.527       .  S
C25          C31   1.552       .  S
C25          C29   1.530       .  S
C25         C552   1.540       .  S
C26          H33   1.085       .  S
C26          C27   1.375       .  D
C27          C28   1.544       .  S
C27         C541   1.484       .  S
C28          C32   1.540       .  S
C28          C30   1.540       .  S
C28          H34   1.106       .  S
C29          H35   1.087       .  S
C29          C30   1.364       .  D
C30         C569   1.493       .  S
C31          H36   1.082       .  S
C31          C32   1.361       .  D
C32         C524   1.484       .  S
C37          C38   1.536       .  S
C37          C43   1.550       .  S
C37          C41   1.534       .  S
C37         C510   1.537       .  S
C38          H45   1.085       .  S
C38          C39   1.374       .  D
C39          C40   1.540       .  S
C39         C538   1.483       .  S
C40          C44   1.535       .  S
C40          C42   1.524       .  S
C40          H46   1.108       .  S
C41          H47   1.087       .  S
C41          C42   1.359       .  D
C42         C594   1.463       .  S
C43          H48   1.083       .  S
C43          C44   1.365       .  D
C44         C527   1.484       .  S
In49         O51   2.253       .  S
In49         O52   2.214       .  S
In49         O60   2.251       .  S
In49         O54   2.217       .  S
In49         O56   2.253       .  S
In49         O57   2.261       .  S
In49         O58   2.225       .  S
In49         O61   2.229       .  S
C50          O56   1.262       .  A
C50          O58   1.264       .  A
C50         C471   1.481       .  S
O51          C59   1.259       .  A
O52          C59   1.261       .  A
C53          O60   1.260       .  A
C53          O54   1.260       .  A
C53         C496   1.472       .  S
C55          O57   1.260       .  A
C55          O61   1.263       .  A
C55         C583   1.484       .  S
C59         C485   1.476       .  S
In62         O64   2.212       .  S
In62         O65   2.239       .  S
In62         O73   2.213       .  S
In62         O67   2.267       .  S
In62         O69   2.215       .  S
In62         O70   2.267       .  S
In62         O71   2.264       .  S
In62         O74   2.217       .  S
C63          O69   1.263       .  A
C63          O71   1.263       .  A
C63         C457   1.482       .  S
O64          C72   1.260       .  A
O65          C72   1.260       .  A
C66          O73   1.260       .  A
C66          O67   1.260       .  A
C66        C1130   1.479       .  S
C68          O70   1.262       .  A
C68          O74   1.261       .  A
C68         C440   1.479       .  S
C72         C499   1.465       .  S
In75         O77   2.270       .  S
In75         O78   2.234       .  S
In75         O86   2.251       .  S
In75         O80   2.213       .  S
In75         O82   2.267       .  S
In75         O83   2.232       .  S
In75         O84   2.225       .  S
In75         O87   2.260       .  S
C76          O82   1.261       .  A
C76          O84   1.263       .  A
C76         C468   1.484       .  S
O77          C85   1.258       .  A
O78          C85   1.262       .  A
C79          O86   1.261       .  A
C79          O80   1.260       .  A
C79         C412   1.477       .  S
C81          O83   1.263       .  A
C81          O87   1.262       .  A
C81         C555   1.485       .  S
C85         C426   1.483       .  S
In88         O90   2.221       .  S
In88         O91   2.215       .  S
In88         O99   2.235       .  S
In88         O93   2.242       .  S
In88         O95   2.223       .  S
In88         O96   2.220       .  S
In88         O97   2.251       .  S
In88        O100   2.257       .  S
C89          O95   1.264       .  A
C89          O97   1.260       .  A
C89         C454   1.480       .  S
O90          C98   1.259       .  A
O91          C98   1.259       .  A
C92          O99   1.262       .  A
C92          O93   1.259       .  A
C92         C429   1.475       .  S
C94          O96   1.263       .  A
C94         O100   1.264       .  A
C94         C398   1.482       .  S
C98         C415   1.472       .  S
C101        C102   1.552       .  S
C101        C107   1.528       .  S
C101        C105   1.533       .  S
C101        C384   1.534       .  S
C102        H109   1.083       .  S
C102        C103   1.370       .  D
C103        C104   1.536       .  S
C103        C356   1.486   1_565  S
C104        C108   1.543       .  S
C104        C106   1.536       .  S
C104        H110   1.108   1_565  S
C105        H111   1.085       .  S
C105        C106   1.357       .  D
C106        C342   1.475       .  S
C107        H112   1.086       .  S
C107        C108   1.370       .  D
C108        C370   1.485   1_565  S
C113        C114   1.550       .  S
C113        C119   1.533       .  S
C113        C117   1.536       .  S
C113        C443   1.537       .  S
C114        H121   1.083       .  S
C114        C115   1.362       .  D
C115        C116   1.543       .  S
C115        C359   1.481       .  S
C116        C120   1.536       .  S
C116        C118   1.534       .  S
C116        H122   1.106       .  S
C117        H123   1.087       .  S
C117        C118   1.363       .  D
C118        C331   1.489       .  S
C119        H124   1.085       .  S
C119        C120   1.374       .  D
C120        C373   1.482       .  S
C125        C126   1.542       .  S
C125        C131   1.539       .  S
C125        C129   1.526       .  S
C125        C314   1.531       .  S
C126        H133   1.084       .  S
C126        C127   1.366       .  D
C127        C128   1.545       .  S
C127        C286   1.479   1_565  S
C128        C132   1.535       .  S
C128        C130   1.527       .  S
C128        H134   1.108   1_565  S
C129        H135   1.088       .  S
C129        C130   1.355       .  D
C130        C345   1.462       .  S
C131        H136   1.083       .  S
C131        C132   1.369       .  D
C132        C300   1.486   1_565  S
C137        C138   1.542       .  S
C137        C143   1.550       .  S
C137        C141   1.535       .  S
C137        C401   1.541       .  S
C138        H145   1.084       .  S
C138        C139   1.379       .  D
C139        C140   1.554       .  S
C139        C289   1.513       .  S
C140        C144   1.541       .  S
C140        C142   1.540       .  S
C140        H146   1.103       .  S
C141        H147   1.087       .  S
C141        C142   1.357       .  D
C142        C328   1.487       .  S
C143        H148   1.083       .  S
C143        C144   1.358       .  D
C144        C303   1.485       .  S
In149       O151   2.230       .  S
In149       O152   2.223       .  S
In149       O160   2.226       .  S
In149       O154   2.237       .  S
In149       O156   2.194       .  S
In149       O157   2.276       .  S
In149       O158   2.259       .  S
In149       O161   2.221       .  S
C150        O156   1.260       .  A
C150        O158   1.262       .  A
C150        C244   1.474       .  S
O151        C159   1.257       .  A
O152        C159   1.265       .  A
C153        O160   1.262       .  A
C153        O154   1.259       .  A
C153        C275   1.472       .  S
C155        O157   1.263       .  A
C155        O161   1.259       .  A
C155        C636   1.481       .  S
C159        C261   1.474   1_554  S
In162       O164   2.243       .  S
In162       O165   2.195       .  S
In162       O173   2.226       .  S
In162       O167   2.254       .  S
In162       O169   2.205       .  S
In162       O170   2.252       .  S
In162       O171   2.242       .  S
In162       O174   2.228       .  S
C163        O169   1.263       .  A
C163        O171   1.261       .  A
C163        C233   1.474       .  S
O164        C172   1.260       .  A
O165        C172   1.262       .  A
C166        O173   1.263       .  A
C166        O167   1.259       .  A
C166        C258   1.477       .  S
C168        O170   1.262       .  A
C168        O174   1.263       .  A
C168        C387   1.481       .  S
C172        C272   1.469       .  S
In175       O177   2.201       .  S
In175       O178   2.256       .  S
In175       O186   2.228       .  S
In175       O180   2.246       .  S
In175       O182   2.223       .  S
In175       O183   2.215       .  S
In175       O184   2.246       .  S
In175       O187   2.261       .  S
C176        O182   1.264       .  A
C176        O184   1.260       .  A
C176        C247   1.477       .  S
O177        C185   1.260       .  A
O178        C185   1.260       .  A
C179        O186   1.261       .  A
C179        O180   1.258       .  A
C179        C853   1.471       .  S
C181        O183   1.261       .  A
C181        O187   1.262       .  A
C181        C513   1.480       .  S
C185        C216   1.473       .  S
In188       O190   2.243       .  S
In188       O191   2.219       .  S
In188       O199   2.254       .  S
In188       O193   2.221       .  S
In188       O195   2.209       .  S
In188       O196   2.267       .  S
In188       O197   2.259       .  S
In188       O200   2.240       .  S
C189        O195   1.262       .  A
C189        O197   1.262       .  A
C189        C230   1.476       .  S
O190        C198   1.258       .  A
O191        C198   1.264       .  A
C192        O199   1.261       .  A
C192        O193   1.260       .  A
C192        C219   1.476       .  S
C194        O196   1.265       .  A
C194        O200   1.263       .  A
C194        C317   1.492       .  S
C198        C202   1.472       .  S
C201        C202   1.397       .  A
C201        C206   1.392       .  A
C201        H208   1.088       .  S
C202        C203   1.416       .  A
C203        C852   1.395       .  A
C203        N210   1.428       .  S
C204        C851   1.395       .  A
C204        C853   1.398   1_556  A
C204        H209   1.089       .  S
C205        C827   1.471       .  S
C205        C206   1.414       .  A
C205        C852   1.398       .  A
C206        N207   1.427       .  S
N207        O211   1.262       .  A
N207        O212   1.262       .  A
N210        O862   1.262       .  A
N210        O213   1.262       .  A
O214        N858   1.262       .  A
C215        C216   1.401       .  A
C215        C220   1.391       .  A
C215        H222   1.088       .  S
C216        C217   1.412       .  A
C217        C218   1.396       .  A
C217        N224   1.427       .  S
C218        C219   1.403       .  A
C218        H223   1.088       .  S
C219        C220   1.411       .  A
C220        N221   1.426       .  S
N221        O225   1.262       .  A
N221        O226   1.262       .  A
N224        O228   1.262       .  A
N224        O227   1.262       .  A
C229        C230   1.401       .  A
C229        C234   1.393       .  A
C229        H236   1.088       .  S
C230        C231   1.413       .  A
C231        C232   1.393       .  A
C231        N238   1.426       .  S
C232        C233   1.401       .  A
C232        H237   1.088       .  S
C233        C234   1.413       .  A
C234        N235   1.427       .  S
N235        O239   1.262       .  A
N235        O240   1.262       .  A
N238        O242   1.262       .  A
N238        O241   1.262       .  A
C243        C244   1.400       .  A
C243        C248   1.391   1_455  A
C243        H250   1.089       .  S
C244        C245   1.413       .  A
C245        C246   1.396   1_455  A
C245        N252   1.427       .  S
C246        C247   1.402       .  A
C246        H251   1.088       .  S
C247        C248   1.414       .  A
C248        N249   1.427       .  S
N249        O253   1.262       .  A
N249        O254   1.262       .  A
N252        O256   1.262   1_554  A
N252        O255   1.262   1_554  A
C257        C258   1.399       .  A
C257        C910   1.393       .  A
C257        H264   1.088       .  S
C258        C907   1.416       .  A
C259        C260   1.394       .  A
C259        C906   1.416       .  A
C259        N266   1.427       .  S
C260        C261   1.399       .  A
C260        H265   1.088       .  S
C261        C262   1.416       .  A
C262        C905   1.393       .  A
C262        N263   1.428   1_556  S
N263        O915   1.262       .  A
N263        O268   1.262   1_554  A
N266        O270   1.262       .  A
N266        O269   1.262       .  A
O267        N911   1.262       .  A
C271        C272   1.400       .  A
C271        C276   1.389       .  A
C271        H278   1.089       .  S
C272        C273   1.413       .  A
C273        C274   1.395       .  A
C273        N280   1.427       .  S
C274        C275   1.401       .  A
C274        H279   1.088       .  S
C275        C276   1.411       .  A
C276        N277   1.427       .  S
N277        O281   1.262       .  A
N277        O282   1.262       .  A
N280        O284   1.262       .  A
N280        O283   1.262       .  A
C285        C286   1.393   1_565  A
C285        C938   1.398   1_565  A
C285        H292   1.087       .  S
C286        C287   1.400       .  A
C287        C936   1.408       .  A
C287        N294   1.430       .  S
C288        C289   1.419   1_556  A
C288        C935   1.408       .  A
C288        H293   1.080       .  S
C289        C290   1.425       .  A
C290        C933   1.398   1_544  A
C290        N291   1.428   1_545  S
N291        O295   1.262       .  A
N291        O296   1.262       .  A
N294        O298   1.263       .  A
N294        O297   1.261       .  A
C299        C300   1.397       .  A
C299        C304   1.396       .  A
C299        H306   1.088       .  S
C300        C301   1.417       .  A
C301        C302   1.400       .  A
C301        N308   1.425       .  S
C302        C303   1.398       .  A
C302        H307   1.089       .  S
C303        C304   1.415       .  A
C304        N305   1.426       .  S
N305        O309   1.262       .  A
N305        O310   1.262       .  A
N308        O312   1.261   1_545  A
N308        O311   1.262       .  A
C313        C314   1.404       .  A
C313        C318   1.396       .  A
C313        H320   1.082       .  S
C314        C315   1.423       .  A
C315        C316   1.404       .  A
C315        N322   1.431       .  S
C316        C317   1.407       .  A
C316        H321   1.082       .  S
C317        C318   1.413       .  A
C318        N319   1.426       .  S
N319        O323   1.262       .  A
N319        O324   1.262       .  A
N322        O326   1.263       .  A
N322        O325   1.262       .  A
C327        C328   1.400       .  A
C327        C332   1.404       .  A
C327        H334   1.089       .  S
C328        C329   1.415       .  A
C329        C330   1.395       .  A
C329        N336   1.427       .  S
C330        C331   1.399       .  A
C330        H335   1.089       .  S
C331        C332   1.417       .  A
C332        N333   1.427       .  S
N333        O337   1.262   1_554  A
N333        O338   1.262       .  A
N336        O340   1.262       .  A
N336        O339   1.262       .  A
C341        C342   1.409       .  A
C341        C346   1.404       .  A
C341        H348   1.082       .  S
C342        C343   1.417       .  A
C343        C344   1.385       .  A
C343        N350   1.431       .  S
C344        C345   1.391       .  A
C344        H349   1.087       .  S
C345        C346   1.401       .  A
C346        N347   1.429       .  S
N347        O351   1.261   1_565  A
N347        O352   1.262       .  A
N350        O354   1.261       .  A
N350        O353   1.261       .  A
C355        C356   1.401       .  A
C355        C360   1.400       .  A
C355        H362   1.088   1_545  S
C356        C357   1.414       .  A
C357        C358   1.394       .  A
C357        N364   1.423       .  S
C358        C359   1.393       .  A
C358        H363   1.089       .  S
C359        C360   1.416       .  A
C360        N361   1.427       .  S
N361        O365   1.262       .  A
N361        O366   1.262       .  A
N364        O368   1.261       .  A
N364        O367   1.260   1_545  A
C369        C370   1.402   1_565  A
C369       C1022   1.393   1_565  A
C369        H376   1.088       .  S
C370        C371   1.413       .  A
C371       C1020   1.395       .  A
C371        N378   1.427       .  S
C372        C373   1.402   1_556  A
C372       C1019   1.395       .  A
C372        H377   1.088       .  S
C373        C374   1.414       .  A
C374       C1017   1.393   1_544  A
C374        N375   1.429   1_545  S
N375        O379   1.262       .  A
N375        O380   1.262       .  A
N378        O382   1.262       .  A
N378        O381   1.262       .  A
C383        C384   1.405       .  A
C383        C388   1.396       .  A
C383        H390   1.084       .  S
C384        C385   1.427       .  A
C385        C386   1.396       .  A
C385        N392   1.430       .  S
C386        C387   1.398       .  A
C386        H391   1.089       .  S
C387        C388   1.412       .  A
C388        N389   1.426       .  S
N389        O393   1.262       .  A
N389        O394   1.262       .  A
N392        O396   1.262       .  A
N392        O395   1.262       .  A
C397        C398   1.400       .  A
C397        C402   1.399       .  A
C397        H404   1.088       .  S
C398        C399   1.408       .  A
C399        C400   1.393       .  A
C399        N406   1.427       .  S
C400        C401   1.410       .  A
C400        H405   1.083       .  S
C401        C402   1.425       .  A
C402        N403   1.428       .  S
N403        O407   1.262       .  A
N403        O408   1.262   1_554  A
N406        O410   1.262       .  A
N406        O409   1.262       .  A
C411        C416   1.398       .  A
C411       C1060   1.408   1_554  A
C411        H418   1.082   1_554  S
C412        C413   1.414       .  A
C412       C1059   1.408       .  A
C413       C1062   1.393       .  A
C413        N420   1.427       .  S
C414        C415   1.397       .  A
C414       C1061   1.393       .  A
C414        H419   1.086       .  S
C415        C416   1.408       .  A
C416        N417   1.429       .  S
N417        O421   1.262       .  A
N417        O422   1.262       .  A
N420        O424   1.262       .  A
N420        O423   1.262       .  A
C425        C426   1.400       .  A
C425        C430   1.394       .  A
C425        H432   1.088       .  S
C426        C427   1.418       .  A
C427        C428   1.400       .  A
C427        N434   1.427       .  S
C428        C429   1.399       .  A
C428        H433   1.089       .  S
C429        C430   1.413       .  A
C430        N431   1.427       .  S
N431        O435   1.262       .  A
N431        O436   1.262       .  A
N434        O438   1.262       .  A
N434        O437   1.262       .  A
C439        C440   1.397       .  A
C439        C444   1.394       .  A
C439        H446   1.089       .  S
C440        C441   1.411       .  A
C441        C442   1.398       .  A
C441        N448   1.427       .  S
C442        C443   1.409       .  A
C442        H447   1.084       .  S
C443        C444   1.424       .  A
C444        N445   1.428       .  S
N445       O1097   1.262   1_554  A
N445        O450   1.262       .  A
N448        O452   1.262       .  A
N448        O451   1.262       .  A
O449       N1093   1.262       .  A
C453        C454   1.401       .  A
C453        C458   1.396       .  A
C453        H460   1.088       .  S
C454        C455   1.415       .  A
C455        C456   1.395       .  A
C455        N462   1.427       .  S
C456        C457   1.402       .  A
C456        H461   1.088       .  S
C457        C458   1.414       .  A
C458        N459   1.426       .  S
N459        O463   1.262       .  A
N459        O464   1.262       .  A
N462        O466   1.262       .  A
N462        O465   1.262       .  A
C467        C468   1.401       .  A
C467        C472   1.395   1_655  A
C467        H474   1.088       .  S
C468        C469   1.417       .  A
C469        C470   1.399   1_655  A
C469        N476   1.427       .  S
C470        C471   1.402       .  A
C470        H475   1.088       .  S
C471        C472   1.414       .  A
C472        N473   1.427       .  S
N473        O477   1.262       .  A
N473        O478   1.262       .  A
N476        O480   1.262       .  A
N476        O479   1.262       .  A
C481       C1130   1.402       .  A
C481       C1134   1.393       .  A
C481        H488   1.088       .  S
C482        C714   1.479       .  S
C482        C483   1.414       .  A
C482       C1129   1.402       .  A
C483        C484   1.395       .  A
C483        N490   1.427       .  S
C484        C485   1.402       .  A
C484        H489   1.088       .  S
C485        C486   1.413       .  A
C486       C1129   1.393       .  A
C486        N487   1.427       .  S
N487       O1139   1.262       .  A
N487        O492   1.262       .  A
N490        O494   1.262       .  A
N490        O493   1.262       .  A
O491       N1135   1.262       .  A
C495        C496   1.400       .  A
C495        C500   1.393       .  A
C495        H502   1.088       .  S
C496        C497   1.415       .  A
C497        C498   1.394       .  A
C497        N504   1.427       .  S
C498        C499   1.397       .  A
C498        H503   1.089       .  S
C499        C500   1.412       .  A
C500        N501   1.427       .  S
N501        O505   1.262       .  A
N501        O506   1.262       .  A
N504        O508   1.262       .  A
N504        O507   1.262       .  A
C509        C510   1.408       .  A
C509        C514   1.397       .  A
C509        H516   1.082       .  S
C510        C511   1.425       .  A
C511        C512   1.396       .  A
C511        N518   1.429       .  S
C512        C513   1.398       .  A
C512        H517   1.088       .  S
C513        C514   1.410       .  A
C514        N515   1.427       .  S
N515        O519   1.262   1_554  A
N515        O520   1.262       .  A
N518        O522   1.262       .  A
N518        O521   1.262       .  A
C523        C524   1.398       .  A
C523       C1176   1.399       .  A
C523        H530   1.089       .  S
C524        C525   1.416       .  A
C525       C1174   1.398       .  A
C525        N532   1.427       .  S
C526        C527   1.399       .  A
C526       C1173   1.398   1_554  A
C526        H531   1.089       .  S
C527        C528   1.415   1_554  A
C528       C1171   1.399       .  A
C528        N529   1.426   1_556  S
N529        O533   1.262       .  A
N529        O534   1.262   1_554  A
N532        O536   1.262       .  A
N532        O535   1.262       .  A
C537        C538   1.403       .  A
C537        C542   1.397       .  A
C537        H544   1.088       .  S
C538        C539   1.412       .  A
C539        C540   1.393       .  A
C539        N546   1.427       .  S
C540        C541   1.401       .  A
C540        H545   1.088       .  S
C541        C542   1.415       .  A
C542        N543   1.428       .  S
N543        O547   1.262       .  A
N543        O548   1.262       .  A
N546        O550   1.262       .  A
N546        O549   1.262       .  A
C551        C552   1.408       .  A
C551        C556   1.396       .  A
C551        H558   1.083       .  S
C552        C553   1.425       .  A
C553        C554   1.398       .  A
C553        N560   1.428       .  S
C554        C555   1.399       .  A
C554        H559   1.088       .  S
C555        C556   1.412       .  A
C556        N557   1.427       .  S
N557       O1209   1.262       .  A
N557        O562   1.262       .  A
N560        O564   1.262       .  A
N560        O563   1.262       .  A
O561       N1205   1.262       .  A
C565        C566   1.397       .  A
C565        C570   1.399   1_455  A
C565        H572   1.089       .  S
C566        C567   1.416       .  A
C567        C568   1.392   1_455  A
C567        N574   1.429       .  S
C568        C569   1.402       .  A
C568        H573   1.088       .  S
C569        C570   1.414       .  A
C570        N571   1.422       .  S
N571        O575   1.261       .  A
N571        O576   1.262       .  A
N574        O578   1.261       .  A
N574        O577   1.262       .  A
C579        C580   1.408       .  A
C579        C584   1.396       .  A
C579        H586   1.083       .  S
C580        C581   1.425       .  A
C581        C582   1.396       .  A
C581        N588   1.429       .  S
C582        C583   1.398       .  A
C582        H587   1.088       .  S
C583        C584   1.412       .  A
C584        N585   1.427       .  S
N585        O589   1.262       .  A
N585        O590   1.262       .  A
N588        O592   1.262       .  A
N588        O591   1.262       .  A
C593        C594   1.391       .  A
C593        C598   1.389   1_655  A
C593        H600   1.088       .  S
C594        C595   1.408       .  A
C595        C596   1.396   1_655  A
C595        N602   1.423       .  S
C596        C597   1.394       .  A
C596        H601   1.089       .  S
C597        C598   1.415       .  A
C598        N599   1.428       .  S
N599        O603   1.262       .  A
N599        O604   1.262       .  A
N602        O606   1.260       .  A
N602        O605   1.262       .  A
C607        C608   1.414       .  A
C607       C1260   1.401       .  A
C607        H614   1.079       .  S
C608        C609   1.427       .  A
C609       C1258   1.397   1_554  A
C609        N616   1.426       .  S
C610        C611   1.387       .  A
C610       C1257   1.397       .  A
C610        H615   1.087       .  S
C611        C612   1.398       .  A
C612       C1255   1.401       .  A
C612        N613   1.424       .  S
N613        O617   1.261       .  A
N613        O618   1.262       .  A
N616        O620   1.262       .  A
N616        O619   1.262       .  A
C621        C622   1.402       .  A
C621        C626   1.396       .  A
C621        H628   1.088       .  S
C622        C623   1.419       .  A
C623        C624   1.406       .  A
C623        N630   1.429       .  S
C624        C625   1.406       .  A
C624        H629   1.088       .  S
C625        C626   1.416       .  A
C626        N627   1.427       .  S
N627        O631   1.262       .  A
N627        O632   1.262       .  A
N630        O634   1.262       .  A
N630        O633   1.262       .  A
C635        C636   1.399       .  A
C635        C640   1.397       .  A
C635        H642   1.089       .  S
C636        C637   1.410       .  A
C637        C638   1.397       .  A
C637        N644   1.426       .  S
C638        C639   1.407       .  A
C638        H643   1.084       .  S
C639        C640   1.427       .  A
C640        N641   1.430       .  S
N641        O645   1.262       .  A
N641        O646   1.263       .  A
N644        O648   1.262       .  A
N644        O647   1.262       .  A
C649        C650   1.558       .  S
C649        C655   1.535       .  S
C649        C653   1.525       .  S
C649       C1287   1.538       .  S
C650        H657   1.077       .  S
C650        C651   1.372       .  D
C651        C652   1.544       .  S
C651       C1256   1.508       .  S
C652        C656   1.547       .  S
C652        C654   1.537       .  S
C652        H658   1.106       .  S
C653        H659   1.087       .  S
C653        C654   1.353       .  D
C654       C1245   1.467       .  S
C655        H660   1.086       .  S
C655        C656   1.372       .  D
C656       C1273   1.501       .  S
C661        C662   1.546       .  S
C661        C667   1.538       .  S
C661        C665   1.532       .  S
C661       C1228   1.534       .  S
C662        H669   1.084       .  S
C662        C663   1.361       .  D
C663        C664   1.532       .  S
C663       C1259   1.471       .  S
C664        C668   1.544       .  S
C664        C666   1.542       .  S
C664        H670   1.108       .  S
C665        H671   1.085       .  S
C665        C666   1.356       .  D
C666       C1214   1.481       .  S
C667        H672   1.084       .  S
C667        C668   1.377       .  D
C668       C1270   1.499       .  S
C673        C674   1.527       .  S
C673        C679   1.552       .  S
C673        C677   1.530       .  S
C673       C1200   1.540       .  S
C674        H681   1.085       .  S
C674        C675   1.375       .  D
C675        C676   1.544       .  S
C675       C1189   1.484       .  S
C676        C680   1.540       .  S
C676        C678   1.540       .  S
C676        H682   1.106       .  S
C677        H683   1.087       .  S
C677        C678   1.364       .  D
C678       C1217   1.493       .  S
C679        H684   1.082       .  S
C679        C680   1.361       .  D
C680       C1172   1.484       .  S
C685        C686   1.536       .  S
C685        C691   1.550       .  S
C685        C689   1.534       .  S
C685       C1158   1.537       .  S
C686        H693   1.085       .  S
C686        C687   1.374       .  D
C687        C688   1.540       .  S
C687       C1186   1.483       .  S
C688        C692   1.535       .  S
C688        C690   1.524       .  S
C688        H694   1.108       .  S
C689        H695   1.087       .  S
C689        C690   1.359       .  D
C690       C1242   1.463       .  S
C691        H696   1.083       .  S
C691        C692   1.365       .  D
C692       C1175   1.484       .  S
In697       O699   2.253       .  S
In697       O700   2.214       .  S
In697       O708   2.251       .  S
In697       O702   2.217       .  S
In697       O704   2.253       .  S
In697       O705   2.261       .  S
In697       O706   2.225       .  S
In697       O709   2.229       .  S
C698        O704   1.262       .  A
C698        O706   1.264       .  A
C698       C1119   1.481       .  S
O699        C707   1.259       .  A
O700        C707   1.261       .  A
C701        O708   1.260       .  A
C701        O702   1.260       .  A
C701       C1144   1.472       .  S
C703        O705   1.260       .  A
C703        O709   1.263       .  A
C703       C1231   1.484       .  S
C707       C1133   1.476       .  S
In710       O712   2.212       .  S
In710       O713   2.239       .  S
In710       O721   2.213       .  S
In710       O715   2.267       .  S
In710       O717   2.215       .  S
In710       O718   2.267       .  S
In710       O719   2.264       .  S
In710       O722   2.217       .  S
C711        O717   1.263       .  A
C711        O719   1.263       .  A
C711       C1105   1.482       .  S
O712        C720   1.260       .  A
O713        C720   1.260       .  A
C714        O721   1.260       .  A
C714        O715   1.260       .  A
C716        O718   1.262       .  A
C716        O722   1.261       .  A
C716       C1088   1.479       .  S
C720       C1147   1.465       .  S
In723       O725   2.271       .  S
In723       O726   2.234       .  S
In723       O734   2.251       .  S
In723       O728   2.213       .  S
In723       O730   2.267       .  S
In723       O731   2.233       .  S
In723       O732   2.225       .  S
In723       O735   2.260       .  S
C724        O730   1.261       .  A
C724        O732   1.263       .  A
C724       C1116   1.484       .  S
O725        C733   1.258       .  A
O726        C733   1.262       .  A
C727        O734   1.261       .  A
C727        O728   1.260       .  A
C727       C1060   1.477       .  S
C729        O731   1.263       .  A
C729        O735   1.262       .  A
C729       C1203   1.485       .  S
C733       C1074   1.483       .  S
In736       O738   2.221       .  S
In736       O739   2.215       .  S
In736       O747   2.235       .  S
In736       O741   2.242       .  S
In736       O743   2.223       .  S
In736       O744   2.220       .  S
In736       O745   2.251       .  S
In736       O748   2.257       .  S
C737        O743   1.264       .  A
C737        O745   1.260       .  A
C737       C1102   1.480       .  S
O738        C746   1.259       .  A
O739        C746   1.259       .  A
C740        O747   1.262       .  A
C740        O741   1.259       .  A
C740       C1077   1.475       .  S
C742        O744   1.263       .  A
C742        O748   1.264       .  A
C742       C1046   1.482       .  S
C746       C1063   1.472       .  S
C749        C750   1.552       .  S
C749        C755   1.528       .  S
C749        C753   1.533       .  S
C749       C1032   1.534       .  S
C750        H757   1.083       .  S
C750        C751   1.370       .  D
C751        C752   1.536       .  S
C751       C1004   1.487   1_565  S
C752        C756   1.543       .  S
C752        C754   1.536       .  S
C752        H758   1.108   1_565  S
C753        H759   1.085       .  S
C753        C754   1.357       .  D
C754        C990   1.475       .  S
C755        H760   1.086       .  S
C755        C756   1.370       .  D
C756       C1018   1.485   1_565  S
C761        C762   1.550       .  S
C761        C767   1.533       .  S
C761        C765   1.536       .  S
C761       C1091   1.537       .  S
C762        H769   1.083       .  S
C762        C763   1.362       .  D
C763        C764   1.543       .  S
C763       C1007   1.481       .  S
C764        C768   1.536       .  S
C764        C766   1.534       .  S
C764        H770   1.106       .  S
C765        H771   1.087       .  S
C765        C766   1.363       .  D
C766        C979   1.489       .  S
C767        H772   1.085       .  S
C767        C768   1.374       .  D
C768       C1021   1.482       .  S
C773        C774   1.542       .  S
C773        C779   1.539       .  S
C773        C777   1.526       .  S
C773        C962   1.531       .  S
C774        H781   1.084       .  S
C774        C775   1.366       .  D
C775        C776   1.545       .  S
C775        C934   1.479   1_565  S
C776        C780   1.535       .  S
C776        C778   1.527       .  S
C776        H782   1.108   1_565  S
C777        H783   1.088       .  S
C777        C778   1.355       .  D
C778        C993   1.462       .  S
C779        H784   1.083       .  S
C779        C780   1.369       .  D
C780        C948   1.486   1_565  S
C785        C786   1.542       .  S
C785        C791   1.550       .  S
C785        C789   1.535       .  S
C785       C1049   1.541       .  S
C786        H793   1.084       .  S
C786        C787   1.379       .  D
C787        C788   1.554       .  S
C787        C937   1.513       .  S
C788        C792   1.541       .  S
C788        C790   1.540       .  S
C788        H794   1.103       .  S
C789        H795   1.087       .  S
C789        C790   1.357       .  D
C790        C976   1.487       .  S
C791        H796   1.083       .  S
C791        C792   1.358       .  D
C792        C951   1.485       .  S
In797       O799   2.230       .  S
In797       O800   2.223       .  S
In797       O808   2.226       .  S
In797       O802   2.236       .  S
In797       O804   2.194       .  S
In797       O805   2.276       .  S
In797       O806   2.259       .  S
In797       O809   2.221       .  S
C798        O804   1.260       .  A
C798        O806   1.262       .  A
C798        C892   1.474       .  S
O799        C807   1.257       .  A
O800        C807   1.265       .  A
C801        O808   1.262       .  A
C801        O802   1.259       .  A
C801        C923   1.472       .  S
C803        O805   1.263       .  A
C803        O809   1.259       .  A
C803       C1284   1.481       .  S
C807        C909   1.474       .  S
In810       O812   2.243       .  S
In810       O813   2.195       .  S
In810       O821   2.226       .  S
In810       O815   2.254       .  S
In810       O817   2.205       .  S
In810       O818   2.252       .  S
In810       O819   2.241       .  S
In810       O822   2.228       .  S
C811        O817   1.263       .  A
C811        O819   1.261       .  A
C811        C881   1.474       .  S
O812        C820   1.260       .  A
O813        C820   1.262       .  A
C814        O821   1.263       .  A
C814        O815   1.259       .  A
C814        C906   1.477       .  S
C816        O818   1.262       .  A
C816        O822   1.263       .  A
C816       C1035   1.481       .  S
C820        C920   1.469       .  S
In823       O825   2.201       .  S
In823       O826   2.256       .  S
In823       O834   2.228       .  S
In823       O828   2.246       .  S
In823       O830   2.223       .  S
In823       O831   2.215       .  S
In823       O832   2.246       .  S
In823       O835   2.261       .  S
C824        O830   1.264       .  A
C824        O832   1.260       .  A
C824        C895   1.477       .  S
O825        C833   1.260       .  A
O826        C833   1.260       .  A
C827        O834   1.261       .  A
C827        O828   1.258       .  A
C829        O831   1.261       .  A
C829        O835   1.262       .  A
C829       C1161   1.480       .  S
C833        C864   1.473       .  S
In836       O838   2.243       .  S
In836       O839   2.219       .  S
In836       O847   2.254       .  S
In836       O841   2.221       .  S
In836       O843   2.209       .  S
In836       O844   2.267       .  S
In836       O845   2.259       .  S
In836       O848   2.240       .  S
C837        O843   1.262       .  A
C837        O845   1.262       .  A
C837        C878   1.476       .  S
O838        C846   1.258       .  A
O839        C846   1.264       .  A
C840        O847   1.261       .  A
C840        O841   1.260       .  A
C840        C867   1.476       .  S
C842        O844   1.265       .  A
C842        O848   1.263       .  A
C842        C965   1.492       .  S
C846        C850   1.472       .  S
C849        C850   1.397       .  A
C849        C854   1.392   1_556  A
C849        H856   1.088       .  S
C850        C851   1.416       .  A
C851        N858   1.428       .  S
C852        H857   1.089       .  S
C853        C854   1.414       .  A
C854        N855   1.427       .  S
N855        O859   1.262       .  A
N855        O860   1.262       .  A
N858        O861   1.262       .  A
C863        C864   1.401       .  A
C863        C868   1.391       .  A
C863        H870   1.088       .  S
C864        C865   1.412       .  A
C865        C866   1.396       .  A
C865        N872   1.427       .  S
C866        C867   1.403       .  A
C866        H871   1.088       .  S
C867        C868   1.411       .  A
C868        N869   1.426       .  S
N869        O873   1.262       .  A
N869        O874   1.262       .  A
N872        O876   1.262       .  A
N872        O875   1.262       .  A
C877        C878   1.401       .  A
C877        C882   1.393       .  A
C877        H884   1.088       .  S
C878        C879   1.413       .  A
C879        C880   1.393       .  A
C879        N886   1.426       .  S
C880        C881   1.401       .  A
C880        H885   1.088       .  S
C881        C882   1.413       .  A
C882        N883   1.427       .  S
N883        O887   1.262       .  A
N883        O888   1.262       .  A
N886        O890   1.262       .  A
N886        O889   1.262       .  A
C891        C892   1.400       .  A
C891        C896   1.391   1_455  A
C891        H898   1.088       .  S
C892        C893   1.413       .  A
C893        C894   1.396   1_455  A
C893        N900   1.427       .  S
C894        C895   1.402       .  A
C894        H899   1.088       .  S
C895        C896   1.414       .  A
C896        N897   1.427       .  S
N897        O901   1.262       .  A
N897        O902   1.262       .  A
N900        O904   1.262       .  A
N900        O903   1.262       .  A
C905        C906   1.399       .  A
C905        H912   1.088       .  S
C907        C908   1.394       .  A
C907        N914   1.427       .  S
C908        C909   1.399       .  A
C908        H913   1.088       .  S
C909        C910   1.416       .  A
C910        N911   1.428       .  S
N911        O916   1.262       .  A
N914        O918   1.262       .  A
N914        O917   1.262       .  A
C919        C920   1.400       .  A
C919        C924   1.389       .  A
C919        H926   1.089       .  S
C920        C921   1.413       .  A
C921        C922   1.395       .  A
C921        N928   1.427       .  S
C922        C923   1.401       .  A
C922        H927   1.088       .  S
C923        C924   1.411       .  A
C924        N925   1.427       .  S
N925        O929   1.262       .  A
N925        O930   1.262       .  A
N928        O932   1.262       .  A
N928        O931   1.262       .  A
C933        C934   1.393   1_565  A
C933        H940   1.087       .  S
C934        C935   1.400       .  A
C935        N942   1.430       .  S
C936        C937   1.419       .  A
C936        H941   1.080       .  S
C937        C938   1.425       .  A
C938        N939   1.428   1_545  S
N939        O943   1.262       .  A
N939        O944   1.262       .  A
N942        O946   1.263       .  A
N942        O945   1.261       .  A
C947        C948   1.397       .  A
C947        C952   1.396       .  A
C947        H954   1.088       .  S
C948        C949   1.417       .  A
C949        C950   1.400       .  A
C949        N956   1.425       .  S
C950        C951   1.398       .  A
C950        H955   1.089       .  S
C951        C952   1.415       .  A
C952        N953   1.426       .  S
N953        O957   1.262       .  A
N953        O958   1.262       .  A
N956        O960   1.261   1_545  A
N956        O959   1.262       .  A
C961        C962   1.404       .  A
C961        C966   1.396       .  A
C961        H968   1.082       .  S
C962        C963   1.423       .  A
C963        C964   1.404       .  A
C963        N970   1.431       .  S
C964        C965   1.407       .  A
C964        H969   1.082       .  S
C965        C966   1.413       .  A
C966        N967   1.426       .  S
N967        O971   1.262       .  A
N967        O972   1.262       .  A
N970        O974   1.263       .  A
N970        O973   1.262       .  A
C975        C976   1.400       .  A
C975        C980   1.404       .  A
C975        H982   1.089       .  S
C976        C977   1.415       .  A
C977        C978   1.395       .  A
C977        N984   1.427       .  S
C978        C979   1.399       .  A
C978        H983   1.089       .  S
C979        C980   1.417       .  A
C980        N981   1.427       .  S
N981        O985   1.262       .  A
N981        O986   1.262       .  A
N984        O988   1.262       .  A
N984        O987   1.262       .  A
C989        C990   1.409       .  A
C989        C994   1.404       .  A
C989        H996   1.082       .  S
C990        C991   1.417       .  A
C991        C992   1.385       .  A
C991        N998   1.431       .  S
C992        C993   1.391       .  A
C992        H997   1.087       .  S
C993        C994   1.401       .  A
C994        N995   1.429       .  S
N995        O999   1.261   1_565  A
N995       O1000   1.262       .  A
N998       O1002   1.261       .  A
N998       O1001   1.261       .  A
C1003      C1004   1.401       .  A
C1003      C1008   1.400       .  A
C1003      H1010   1.088   1_545  S
C1004      C1005   1.414       .  A
C1005      C1006   1.394       .  A
C1005      N1012   1.423       .  S
C1006      C1007   1.393       .  A
C1006      H1011   1.089       .  S
C1007      C1008   1.416       .  A
C1008      N1009   1.427       .  S
N1009      O1013   1.262       .  A
N1009      O1014   1.262       .  A
N1012      O1016   1.261       .  A
N1012      O1015   1.260   1_545  A
C1017      C1018   1.402   1_565  A
C1017      H1024   1.088       .  S
C1018      C1019   1.413       .  A
C1019      N1026   1.427       .  S
C1020      C1021   1.402       .  A
C1020      H1025   1.088       .  S
C1021      C1022   1.414       .  A
C1022      N1023   1.429   1_545  S
N1023      O1027   1.262       .  A
N1023      O1028   1.262       .  A
N1026      O1030   1.262       .  A
N1026      O1029   1.262       .  A
C1031      C1032   1.405       .  A
C1031      C1036   1.396       .  A
C1031      H1038   1.084       .  S
C1032      C1033   1.427       .  A
C1033      C1034   1.396       .  A
C1033      N1040   1.430       .  S
C1034      C1035   1.398       .  A
C1034      H1039   1.089       .  S
C1035      C1036   1.412       .  A
C1036      N1037   1.426       .  S
N1037      O1041   1.262       .  A
N1037      O1042   1.262       .  A
N1040      O1044   1.262       .  A
N1040      O1043   1.262       .  A
C1045      C1046   1.400       .  A
C1045      C1050   1.399       .  A
C1045      H1052   1.088       .  S
C1046      C1047   1.408       .  A
C1047      C1048   1.393       .  A
C1047      N1054   1.427       .  S
C1048      C1049   1.410       .  A
C1048      H1053   1.083       .  S
C1049      C1050   1.425       .  A
C1050      N1051   1.428       .  S
N1051      O1055   1.262       .  A
N1051      O1056   1.262       .  A
N1054      O1058   1.262       .  A
N1054      O1057   1.262       .  A
C1059      C1064   1.398       .  A
C1059      H1066   1.082       .  S
C1060      C1061   1.414   1_556  A
C1061      N1068   1.427       .  S
C1062      C1063   1.397       .  A
C1062      H1067   1.086       .  S
C1063      C1064   1.408       .  A
C1064      N1065   1.429       .  S
N1065      O1069   1.262       .  A
N1065      O1070   1.262       .  A
N1068      O1072   1.262       .  A
N1068      O1071   1.262   1_554  A
C1073      C1074   1.400       .  A
C1073      C1078   1.394       .  A
C1073      H1080   1.088       .  S
C1074      C1075   1.418       .  A
C1075      C1076   1.400       .  A
C1075      N1082   1.427       .  S
C1076      C1077   1.399       .  A
C1076      H1081   1.089       .  S
C1077      C1078   1.413       .  A
C1078      N1079   1.427       .  S
N1079      O1083   1.262       .  A
N1079      O1084   1.262       .  A
N1082      O1086   1.262       .  A
N1082      O1085   1.262       .  A
C1087      C1088   1.397       .  A
C1087      C1092   1.394       .  A
C1087      H1094   1.089       .  S
C1088      C1089   1.411       .  A
C1089      C1090   1.398       .  A
C1089      N1096   1.427       .  S
C1090      C1091   1.409       .  A
C1090      H1095   1.084       .  S
C1091      C1092   1.424       .  A
C1092      N1093   1.428       .  S
N1093      O1098   1.262       .  A
N1096      O1100   1.262       .  A
N1096      O1099   1.262       .  A
C1101      C1102   1.401       .  A
C1101      C1106   1.396       .  A
C1101      H1108   1.088       .  S
C1102      C1103   1.415       .  A
C1103      C1104   1.395       .  A
C1103      N1110   1.427       .  S
C1104      C1105   1.402       .  A
C1104      H1109   1.088       .  S
C1105      C1106   1.414       .  A
C1106      N1107   1.426       .  S
N1107      O1111   1.262       .  A
N1107      O1112   1.262       .  A
N1110      O1114   1.262       .  A
N1110      O1113   1.262       .  A
C1115      C1116   1.401       .  A
C1115      C1120   1.395   1_655  A
C1115      H1122   1.088       .  S
C1116      C1117   1.417       .  A
C1117      C1118   1.399   1_655  A
C1117      N1124   1.427       .  S
C1118      C1119   1.402       .  A
C1118      H1123   1.088       .  S
C1119      C1120   1.414       .  A
C1120      N1121   1.427       .  S
N1121      O1125   1.262       .  A
N1121      O1126   1.262       .  A
N1124      O1128   1.262       .  A
N1124      O1127   1.262   1_556  A
C1129      H1136   1.088       .  S
C1130      C1131   1.414       .  A
C1131      C1132   1.395   1_554  A
C1131      N1138   1.427       .  S
C1132      C1133   1.402       .  A
C1132      H1137   1.088       .  S
C1133      C1134   1.413   1_556  A
C1134      N1135   1.427   1_554  S
N1135      O1140   1.262   1_556  A
N1138      O1142   1.262       .  A
N1138      O1141   1.262   1_554  A
C1143      C1144   1.400       .  A
C1143      C1148   1.393       .  A
C1143      H1150   1.088       .  S
C1144      C1145   1.415       .  A
C1145      C1146   1.394       .  A
C1145      N1152   1.427       .  S
C1146      C1147   1.397       .  A
C1146      H1151   1.089       .  S
C1147      C1148   1.412       .  A
C1148      N1149   1.427       .  S
N1149      O1153   1.262       .  A
N1149      O1154   1.262       .  A
N1152      O1156   1.262       .  A
N1152      O1155   1.262       .  A
C1157      C1158   1.408       .  A
C1157      C1162   1.397       .  A
C1157      H1164   1.082       .  S
C1158      C1159   1.425       .  A
C1159      C1160   1.396       .  A
C1159      N1166   1.429       .  S
C1160      C1161   1.398       .  A
C1160      H1165   1.088       .  S
C1161      C1162   1.410       .  A
C1162      N1163   1.427       .  S
N1163      O1167   1.262       .  A
N1163      O1168   1.262       .  A
N1166      O1170   1.262       .  A
N1166      O1169   1.262       .  A
C1171      C1172   1.398       .  A
C1171      H1178   1.089       .  S
C1172      C1173   1.416       .  A
C1173      N1180   1.427       .  S
C1174      C1175   1.398       .  A
C1174      H1179   1.089       .  S
C1175      C1176   1.415       .  A
C1176      N1177   1.426       .  S
N1177      O1181   1.262       .  A
N1177      O1182   1.262       .  A
N1180      O1184   1.262       .  A
N1180      O1183   1.262       .  A
C1185      C1186   1.403       .  A
C1185      C1190   1.397       .  A
C1185      H1192   1.088       .  S
C1186      C1187   1.412       .  A
C1187      C1188   1.393       .  A
C1187      N1194   1.427       .  S
C1188      C1189   1.401       .  A
C1188      H1193   1.088       .  S
C1189      C1190   1.415       .  A
C1190      N1191   1.428       .  S
N1191      O1195   1.262       .  A
N1191      O1196   1.262       .  A
N1194      O1198   1.262       .  A
N1194      O1197   1.262       .  A
C1199      C1200   1.408       .  A
C1199      C1204   1.396       .  A
C1199      H1206   1.083       .  S
C1200      C1201   1.425       .  A
C1201      C1202   1.398       .  A
C1201      N1208   1.428       .  S
C1202      C1203   1.399       .  A
C1202      H1207   1.088       .  S
C1203      C1204   1.412       .  A
C1204      N1205   1.427       .  S
N1205      O1210   1.262       .  A
N1208      O1212   1.262       .  A
N1208      O1211   1.262       .  A
C1213      C1214   1.397       .  A
C1213      C1218   1.399   1_455  A
C1213      H1220   1.089       .  S
C1214      C1215   1.416       .  A
C1215      C1216   1.392   1_455  A
C1215      N1222   1.429       .  S
C1216      C1217   1.402       .  A
C1216      H1221   1.088       .  S
C1217      C1218   1.414       .  A
C1218      N1219   1.422       .  S
N1219      O1223   1.261       .  A
N1219      O1224   1.262       .  A
N1222      O1226   1.261       .  A
N1222      O1225   1.262       .  A
C1227      C1228   1.408       .  A
C1227      C1232   1.396       .  A
C1227      H1234   1.083       .  S
C1228      C1229   1.425       .  A
C1229      C1230   1.396       .  A
C1229      N1236   1.429       .  S
C1230      C1231   1.398       .  A
C1230      H1235   1.088       .  S
C1231      C1232   1.412       .  A
C1232      N1233   1.427       .  S
N1233      O1237   1.262       .  A
N1233      O1238   1.262   1_556  A
N1236      O1240   1.262       .  A
N1236      O1239   1.262       .  A
C1241      C1242   1.391       .  A
C1241      C1246   1.389   1_655  A
C1241      H1248   1.088       .  S
C1242      C1243   1.408       .  A
C1243      C1244   1.396   1_655  A
C1243      N1250   1.423       .  S
C1244      C1245   1.394       .  A
C1244      H1249   1.089       .  S
C1245      C1246   1.415       .  A
C1246      N1247   1.428       .  S
N1247      O1251   1.262       .  A
N1247      O1252   1.262       .  A
N1250      O1254   1.260       .  A
N1250      O1253   1.262       .  A
C1255      C1256   1.414       .  A
C1255      H1262   1.079       .  S
C1256      C1257   1.427       .  A
C1257      N1264   1.426       .  S
C1258      C1259   1.387       .  A
C1258      H1263   1.087       .  S
C1259      C1260   1.398   1_556  A
C1260      N1261   1.424       .  S
N1261      O1265   1.261       .  A
N1261      O1266   1.262   1_554  A
N1264      O1268   1.262       .  A
N1264      O1267   1.262       .  A
C1269      C1270   1.402       .  A
C1269      C1274   1.396       .  A
C1269      H1276   1.088       .  S
C1270      C1271   1.419       .  A
C1271      C1272   1.406       .  A
C1271      N1278   1.429       .  S
C1272      C1273   1.406       .  A
C1272      H1277   1.088       .  S
C1273      C1274   1.416       .  A
C1274      N1275   1.427       .  S
N1275      O1279   1.262       .  A
N1275      O1280   1.262       .  A
N1278      O1282   1.262       .  A
N1278      O1281   1.262       .  A
C1283      C1284   1.399       .  A
C1283      C1288   1.397       .  A
C1283      H1290   1.089       .  S
C1284      C1285   1.410       .  A
C1285      C1286   1.397       .  A
C1285      N1292   1.426       .  S
C1286      C1287   1.407       .  A
C1286      H1291   1.084       .  S
C1287      C1288   1.427       .  A
C1288      N1289   1.430       .  S
N1289      O1293   1.262       .  A
N1289      O1294   1.263       .  A
N1292      O1296   1.262       .  A
N1292      O1295   1.262       .  A
