geometry optimzed in LAMMPS
_audit_creation_date              2020-11-30 
_audit_creation_method            'lammps2cif' 
_symmetry_space_group_name_H-M    'P1' 
_symmetry_Int_Tables_number       1 
_symmetry_cell_setting            triclinic 
loop_ 
_symmetry_equiv_pos_as_xyz 
  x,y,z 
_cell_length_a                    29.61541866 
_cell_length_b                    29.848747522332364 
_cell_length_c                    30.040970888094257 
_cell_angle_alpha                 90.20650995346877 
_cell_angle_beta                  90.07144966613288 
_cell_angle_gamma                 90.21153105497382 
loop_ 
_atom_site_label 
_atom_site_type_symbol 
_atom_site_fract_x 
_atom_site_fract_y 
_atom_site_fract_z 
_atom_site_charge 
O1          O  0.45305300  0.41957138  0.54589321    -0.77900
C2          C  0.55112420  0.41344384  0.43934077     0.83100
O3          O  0.58312497  0.50783128  0.59643773    -0.79000
O4          O  0.57792980  0.55400371  0.44203320    -0.80500
O5          O  0.41804333  0.55006199  0.45458530    -0.80300
O6          O  0.40332674  0.47493213  0.53940732    -0.78900
Zn7        Zn  0.51348108  0.44510194  0.52861758     1.55700
O8          O  0.47518915  0.54154833  0.40758105    -0.80300
Cd9        Cd  0.44329545  0.52681332  0.51499306     1.59700
Cd10       Cd  0.54857624  0.54750255  0.54911654     1.59600
O11         O  0.43881061  0.58065510  0.55778490    -0.80300
O12         O  0.50776615  0.50767217  0.51118624    -1.90800
Cd13       Cd  0.52406646  0.51242359  0.44743143     1.59900
O14         O  0.50862855  0.59477855  0.58289403    -0.80300
O15         O  0.54405411  0.45166055  0.42192185    -0.78900
C16         C  0.57933120  0.46599728  0.60511875     0.83600
C17         C  0.41304758  0.43463890  0.54977336     0.83300
O18         O  0.54143349  0.40615221  0.48001702    -0.77900
C19         C  0.43545240  0.55516745  0.41608973     0.84100
O20         O  0.55338833  0.44046578  0.58253005    -0.78000
C21         C  0.46632220  0.60328538  0.58162517     0.84200
C22         C  0.60202954  0.57937643  0.46651861     0.84500
O23         O  0.59563030  0.58220463  0.50858045    -0.80400
O24         O  0.05830012  0.42335799  0.47067866    -0.77900
C25         C  0.96238189  0.41799838  0.57814165     0.83100
O26         O  0.92870484  0.51099246  0.42265190    -0.79000
O27         O  0.93405753  0.55792170  0.57825941    -0.80500
O28         O  0.09649096  0.55060895  0.55888853    -0.80300
O29         O  0.10914128  0.47781055  0.47409295    -0.78900
Zn30       Zn  0.99921588  0.44946514  0.48926602     1.55700
O31         O  0.04123684  0.54295763  0.60839738    -0.80300
Cd32       Cd  0.06921068  0.52906411  0.49951317     1.59700
Cd33       Cd  0.96353133  0.55056093  0.46957119     1.59600
O34         O  0.07273024  0.58233752  0.45693030    -0.80300
O35         O  0.00467292  0.51136935  0.50671082    -1.90800
Cd36       Cd  0.98880905  0.51659343  0.57091096     1.59900
O37         O  0.00235833  0.59765547  0.43457717    -0.80300
O38         O  0.96909123  0.45583221  0.59676623    -0.78900
C39         C  0.93299674  0.46926790  0.41401467     0.83600
C40         C  0.09844608  0.43740006  0.46501574     0.83300
O41         O  0.97239544  0.41139268  0.53749559    -0.77900
C42         C  0.08136981  0.55466025  0.59833885     0.84100
O43         O  0.95900673  0.44433105  0.43663522    -0.78000
C44         C  0.04485036  0.60532540  0.43429901     0.84200
C45         C  0.90972724  0.58173829  0.55269326     0.84500
O46         O  0.91675206  0.58399233  0.51073362    -0.80400
O47         O  0.44388789  0.59785555  0.97794409    -0.77900
C48         C  0.54302453  0.60326812  0.08828211     0.83100
O49         O  0.57531209  0.51355406  0.93118230    -0.79000
O50         O  0.56723763  0.46145316  0.08596786    -0.80500
O51         O  0.40744646  0.47281071  0.07229717    -0.80300
O52         O  0.39617734  0.54012805  0.98160118    -0.78900
Zn53       Zn  0.50416535  0.57428618  0.99862017     1.55700
O54         O  0.46467186  0.48245824  0.11905787    -0.80300
Cd55       Cd  0.43501717  0.49082081  0.01101595     1.59700
Cd56       Cd  0.54052100  0.47286766  0.97752843     1.59600
O57         O  0.43176281  0.43508259  0.97044556    -0.80300
O58         O  0.49913167  0.51130065  0.01522933    -1.90800
Cd59       Cd  0.51555754  0.50508648  0.07864924     1.59900
O60         O  0.50128155  0.42537782  0.94304195    -0.80300
O61         O  0.53872594  0.56389679  0.10341343    -0.78900
C62         C  0.57210391  0.55556762  0.92326263     0.83600
C63         C  0.40514877  0.58044565  0.97072712     0.83300
O64         O  0.53027324  0.61290095  0.04886264    -0.77900
C65         C  0.42428922  0.47033169  0.11134184     0.84100
O66         O  0.54604674  0.58063572  0.94602372    -0.78000
C67         C  0.45949200  0.41454939  0.94523935     0.84200
C68         C  0.59246024  0.43864339  0.06046055     0.84500
O69         O  0.58727325  0.43847674  0.01815298    -0.80400
O70         O  0.48283558  0.03764624  0.61217924    -0.77900
C71         C  0.55153247  0.91005522  0.57888967     0.83100
O72         O  0.59425054  0.07887847  0.50434177    -0.79000
O73         O  0.55384872  0.93566313  0.43433334    -0.80500
O74         O  0.40312056  0.97319964  0.48199818    -0.80300
O75         O  0.42133485  0.04187583  0.57009526    -0.78900
Zn76       Zn  0.52937142  0.00993390  0.57032885     1.55700
O77         O  0.45051737  0.91634902  0.47133519    -0.80300
Cd78       Cd  0.44386030  0.02335317  0.50784544     1.59700
Cd79       Cd  0.54475068  0.04454328  0.46750072     1.59600
O80         O  0.43536611  0.07839712  0.46764970    -0.80300
O81         O  0.50847640  0.00513246  0.50914357    -1.90800
Cd82       Cd  0.51290567  0.94112653  0.48964859     1.59900
O83         O  0.50226301  0.09159316  0.43621589    -0.80300
O84         O  0.53999034  0.90068299  0.53903064    -0.78900
C85         C  0.60537451  0.07486466  0.54525075     0.83600
C86         C  0.44126453  0.04749126  0.60729995     0.83300
O87         O  0.54808640  0.94972602  0.59432989    -0.77900
C88         C  0.41116758  0.93329673  0.46911363     0.84100
O89         O  0.58383802  0.04935718  0.57171032    -0.78000
C90         C  0.46030941  0.10060442  0.44110021     0.84200
C91         C  0.57734544  0.96285145  0.41128359     0.84500
O92         O  0.57799724  0.00499450  0.41933861    -0.80400
O93         O  0.06390375  0.58988883  0.04655538    -0.77900
C94         C  0.96411003  0.59791489  0.93748256     0.83100
O95         O  0.93291438  0.50272403  0.09404481    -0.79000
O96         O  0.93540609  0.45644727  0.93767986    -0.80500
O97         O  0.09795948  0.46403282  0.95316798    -0.80300
O98         O  0.11253918  0.53363865  0.04237709    -0.78900
Zn99       Zn  0.00327064  0.56554743  0.02610949     1.55700
O100        O  0.04077910  0.47226708  0.90575667    -0.80300
Cd101      Cd  0.07192518  0.48400557  0.01396562     1.59700
Cd102      Cd  0.96688386  0.46355602  0.04612864     1.59600
O103        O  0.07555189  0.42878312  0.05452573    -0.80300
O104        O  0.00751093  0.50324223  0.00842143    -1.90800
Cd105      Cd  0.98972890  0.49880110  0.94454568     1.59900
O106        O  0.00585142  0.41589629  0.07999483    -0.80300
O107        O  0.96933724  0.55965715  0.91937119    -0.78900
C108        C  0.93743866  0.54455579  0.10238566     0.83600
C109        C  0.10332071  0.57395944  0.05304008     0.83300
O110        O  0.97548603  0.60500422  0.97790201    -0.77900
C111        C  0.08093645  0.45979759  0.91435332     0.84100
O112        O  0.96280860  0.56946296  0.07883182    -0.78000
C113        C  0.04794166  0.40667262  0.07846311     0.84200
C114        C  0.91258727  0.43120815  0.96332946     0.84500
O115        O  0.92020552  0.42919259  0.00522234    -0.80400
O116        O  0.03849057  0.03321005  0.39847927    -0.77900
C117        C  0.97069537  0.90840890  0.42765239     0.83100
O118        O  0.92442989  0.07654081  0.50191592    -0.79000
O119        O  0.96303040  0.93181427  0.57060841    -0.80500
O120        O  0.11606178  0.97199576  0.52991867    -0.80300
O121        O  0.09888876  0.03789248  0.44197365    -0.78900
Zn122      Zn  0.99028201  0.00781771  0.43879635     1.55700
O123        O  0.06963694  0.91438307  0.54046717    -0.80300
Cd124      Cd  0.07452719  0.01998265  0.50302742     1.59700
Cd125      Cd  0.97208506  0.04115843  0.54064155     1.59600
O126        O  0.08160261  0.07396779  0.54398422    -0.80300
O127        O  0.01002536  0.00207995  0.50005503    -1.90800
Cd128      Cd  0.00745005  0.93783747  0.51822849     1.59900
O129        O  0.01464373  0.08691798  0.57537100    -0.80300
O130        O  0.98400684  0.89768019  0.46655469    -0.78900
C131        C  0.91443536  0.07311200  0.46055152     0.83600
C132        C  0.07994791  0.04296442  0.40431498     0.83300
O133        O  0.97183860  0.94876130  0.41446221    -0.77900
C134        C  0.10860238  0.93249832  0.54380187     0.84100
O135        O  0.93627323  0.04750274  0.43446337    -0.78000
C136        C  0.05682425  0.09569088  0.57092235     0.84200
C137        C  0.93808940  0.95794393  0.59348561     0.84500
O138        O  0.93681969  0.00021338  0.58634914    -0.80400
O139        O  0.47740828  0.97545010  0.90929705    -0.77900
C140        C  0.55165986  0.10212594  0.93530113     0.83100
O141        O  0.59865336  0.93804312  0.00923569    -0.79000
O142        O  0.55683768  0.07872900  0.08120646    -0.80500
O143        O  0.40832707  0.04088657  0.04289203    -0.80300
O144        O  0.41980124  0.97055930  0.95611859    -0.78900
Zn145      Zn  0.52709131  0.00329522  0.94704886     1.55700
O146        O  0.45521429  0.09922330  0.04608338    -0.80300
Cd147      Cd  0.44679572  0.99041105  0.01571921     1.59700
Cd148      Cd  0.54976967  0.96991624  0.04901432     1.59600
O149        O  0.44061323  0.93598907  0.05674875    -0.80300
O150        O  0.51089412  0.00869373  0.00924828    -1.90800
Cd151      Cd  0.51629387  0.07323536  0.02616778     1.59900
O152        O  0.50982973  0.92148989  0.08226076    -0.80300
O153        O  0.54303000  0.11251981  0.97558393    -0.78900
C154        C  0.60590787  0.94100843  0.96734882     0.83600
C155        C  0.43652629  0.96492417  0.91756806     0.83300
O156        O  0.54530973  0.06242389  0.92098807    -0.77900
C157        C  0.41667922  0.08152517  0.05302253     0.84100
O158        O  0.58120278  0.96460235  0.94202454    -0.78000
C159        C  0.46741726  0.91315187  0.08065013     0.84200
C160        C  0.57934576  0.05217065  0.10569260     0.84500
O161        O  0.58153679  0.01009839  0.09767929    -0.80400
O162        O  0.03715576  0.97777944  0.10883418    -0.77900
C163        C  0.96280006  0.10085732  0.07807973     0.83100
O164        O  0.91921372  0.93408270  0.00564464    -0.79000
O165        O  0.96281675  0.07600713  0.93366480    -0.80500
O166        O  0.11277112  0.04027379  0.97731616    -0.80300
O167        O  0.09720056  0.97183485  0.06489648    -0.78900
Zn168      Zn  0.98808909  0.00218551  0.06879547     1.55700
O169        O  0.06520584  0.09737022  0.97124933    -0.80300
Cd170      Cd  0.07211600  0.98984750  0.00342378     1.59700
Cd171      Cd  0.96807983  0.96843310  0.96764277     1.59600
O172        O  0.07772131  0.93508128  0.96201746    -0.80300
O173        O  0.00726939  0.00746238  0.00751148    -1.90800
Cd174      Cd  0.00303987  0.07146046  0.98920534     1.59900
O175        O  0.00878311  0.92199217  0.93422669    -0.80300
O176        O  0.97482712  0.11113574  0.03867982    -0.78900
C177        C  0.91124183  0.93642525  0.04742561     0.83600
C178        C  0.07851313  0.96779533  0.10283960     0.83300
O179        O  0.96728806  0.06116922  0.09264245    -0.77900
C180        C  0.10456564  0.08081729  0.96691702     0.84100
O181        O  0.93493935  0.96108970  0.07307566    -0.78000
C182        C  0.05095130  0.91329827  0.93661944     0.84200
C183        C  0.93846476  0.04939550  0.91053965     0.84500
O184        O  0.93549277  0.00763483  0.91942710    -0.80400
O185        O  0.79006218  0.65190860  0.22686285    -0.77900
C186        C  0.71420586  0.68615110  0.34972101     0.83100
O187        O  0.67079731  0.75779700  0.18550402    -0.79000
O188        O  0.71554514  0.83146435  0.32626258    -0.80500
O189        O  0.86293793  0.78634350  0.28179497    -0.80300
O190        O  0.84701397  0.69847642  0.21458926    -0.78900
Zn191      Zn  0.74156084  0.69390902  0.25138836     1.55700
O192        O  0.81922560  0.79068844  0.34230333    -0.80300
Cd193      Cd  0.82187829  0.75998949  0.23314291     1.59700
Cd194      Cd  0.71929932  0.79679457  0.21827929     1.59600
O195        O  0.82652069  0.80126461  0.17843576    -0.80300
O196        O  0.75885324  0.75621096  0.25536188    -1.90800
Cd197      Cd  0.75543576  0.77488308  0.31950761     1.59900
O198        O  0.75814210  0.83171516  0.17103727    -0.80300
O199        O  0.72649641  0.72582700  0.36006442    -0.78900
C200        C  0.66398756  0.71561045  0.18789742     0.83600
C201        C  0.83020087  0.65916040  0.21337728     0.83300
O202        O  0.71966112  0.67146920  0.31029827    -0.77900
C203        C  0.85712441  0.79559906  0.32280082     0.84100
O204        O  0.68892255  0.69024415  0.21125861    -0.78000
C205        C  0.79949149  0.82814769  0.15934493     0.84200
C206        C  0.68898265  0.85272242  0.30048455     0.84500
O207        O  0.68546443  0.84313236  0.25909205    -0.80400
O208        O  0.81228720  0.29597953  0.66713003    -0.77900
C209        C  0.71723912  0.18366857  0.65659555     0.83100
O210        O  0.68377978  0.34011497  0.75527007    -0.79000
O211        O  0.68671216  0.18354925  0.79784637    -0.80500
O212        O  0.84915819  0.19779963  0.78833554    -0.80300
O213        O  0.86131427  0.28780358  0.72267141    -0.78900
Zn214      Zn  0.75248681  0.27404146  0.69062169     1.55700
O215        O  0.79283450  0.14901684  0.78209796    -0.80300
Cd216      Cd  0.82238553  0.25864373  0.77124905     1.59700
Cd217      Cd  0.71971296  0.29243576  0.79245037     1.59600
O218        O  0.82875324  0.29798697  0.82708150    -0.80300
O219        O  0.75828607  0.25413446  0.75201790    -1.90800
Cd220      Cd  0.74144546  0.18936382  0.75615367     1.59900
O221        O  0.76012988  0.32598540  0.83958795    -0.80300
O222        O  0.72205243  0.16515121  0.69450134    -0.78900
C223        C  0.68534250  0.34905061  0.71372037     0.83600
C224        C  0.85168229  0.30099895  0.68358328     0.83300
O225        O  0.72772124  0.22467931  0.65052132    -0.77900
C226        C  0.83358609  0.15829805  0.79262642     0.84100
O227        O  0.71013607  0.32680816  0.68703388    -0.78000
C228        C  0.80214270  0.32308284  0.84897655     0.84200
C229        C  0.66483771  0.20982208  0.82342984     0.84500
O230        O  0.67361506  0.25169554  0.82608855    -0.80400
O231        O  0.20169309  0.79691461  0.84315941    -0.77900
C232        C  0.29961942  0.68856924  0.85162435     0.83100
O233        O  0.33472940  0.84560792  0.75993357    -0.79000
O234        O  0.33457667  0.69187530  0.71254456    -0.80500
O235        O  0.17027144  0.70540249  0.71796555    -0.80300
O236        O  0.15406496  0.79354892  0.78612913    -0.78900
Zn237      Zn  0.26240482  0.77796478  0.81956154     1.55700
O238        O  0.22861353  0.65874732  0.72372190    -0.80300
Cd239      Cd  0.19582903  0.76657755  0.73749085     1.59700
Cd240      Cd  0.30044726  0.79982173  0.71902705     1.59600
O241        O  0.19295317  0.80684579  0.68232144    -0.80300
O242        O  0.25980505  0.76117478  0.75741648    -1.90800
Cd243      Cd  0.27865382  0.69742782  0.75242069     1.59900
O244        O  0.26231375  0.83425032  0.67097660    -0.80300
O245        O  0.29635968  0.67082073  0.81314692    -0.78900
C246        C  0.33068922  0.85278579  0.80170273     0.83600
C247        C  0.16243475  0.80261614  0.82679727     0.83300
O248        O  0.28761666  0.72890742  0.85856948    -0.77900
C249        C  0.18790820  0.66689945  0.71278680     0.84100
O250        O  0.30392734  0.83001156  0.82588484    -0.78000
C251        C  0.22052925  0.83118963  0.66059034     0.84200
C252        C  0.35699948  0.71836268  0.68783240     0.84500
O253        O  0.34809047  0.76015959  0.68541383    -0.80400
O254        O  0.20994052  0.21014641  0.67107647    -0.77900
C255        C  0.30295180  0.32549374  0.66298884     0.83100
O256        O  0.33986998  0.17080296  0.76250623    -0.79000
O257        O  0.33575043  0.32517081  0.80360049    -0.80500
O258        O  0.17126019  0.30984371  0.79359228    -0.80300
O259        O  0.15852308  0.21938870  0.72399535    -0.78900
Zn260      Zn  0.26917307  0.23423899  0.69595817     1.55700
O261        O  0.23027306  0.35608773  0.78998500    -0.78700
Cd262      Cd  0.19750027  0.24862950  0.77409922     1.59700
Cd263      Cd  0.30139102  0.21683244  0.79910369     1.59600
O264        O  0.19176571  0.20835324  0.82905770    -0.80300
O265        O  0.26261358  0.25355922  0.75732620    -1.90800
Cd266      Cd  0.28080487  0.31766572  0.76215837     1.59900
O267        O  0.26058125  0.18221763  0.84461358    -0.80300
O268        O  0.29837073  0.34341108  0.70122143    -0.78900
C269        C  0.33873643  0.16216710  0.72084060     0.83600
C270        C  0.16958561  0.20553258  0.68534039     0.83300
O271        O  0.29346978  0.28425429  0.65622708    -0.77900
C272        C  0.18939715  0.34807092  0.80046443     0.84100
O273        O  0.31335269  0.18360700  0.69414950    -0.78000
C274        C  0.21819880  0.18431024  0.85229239     0.84200
C275        C  0.35530102  0.29988626  0.83163581     0.84500
O276        O  0.34525281  0.25841325  0.83544600    -0.80400
O277        O  0.22341204  0.86379833  0.22892947    -0.77900
C278        C  0.29538421  0.83252546  0.35337511     0.83100
O279        O  0.34317821  0.76274559  0.18589454    -0.79000
O280        O  0.30101819  0.69020848  0.32800742    -0.80500
O281        O  0.14987302  0.72824350  0.28662604    -0.80300
O282        O  0.16530841  0.81712801  0.22072405    -0.78900
Zn283      Zn  0.27378984  0.82481579  0.25401820     1.55700
O284        O  0.19573280  0.72129133  0.34471789    -0.80300
Cd285      Cd  0.19150307  0.75637600  0.23904298     1.59700
Cd286      Cd  0.29587900  0.72216109  0.21993629     1.59600
O287        O  0.18721487  0.71489143  0.18517058    -0.80300
O288        O  0.25573650  0.76205963  0.25786719    -1.90800
Cd289      Cd  0.25764122  0.74284429  0.32121981     1.59900
O290        O  0.25563482  0.68611948  0.17324850    -0.80300
O291        O  0.28242505  0.79277375  0.36185182    -0.78900
C292        C  0.35148519  0.80479266  0.18896081     0.83600
C293        C  0.18251402  0.85610925  0.21768362     0.83300
O294        O  0.29290377  0.84875920  0.31425681    -0.77900
C295        C  0.15711908  0.71629988  0.32658584     0.84100
O296        O  0.32797639  0.83046588  0.21371599    -0.78000
C297        C  0.21351994  0.68906459  0.16375990     0.84200
C298        C  0.32776580  0.66844375  0.30295554     0.84500
O299        O  0.33138521  0.67674407  0.26128650    -0.80400
O300        O  0.79148016  0.35996380  0.28758764    -0.77900
C301        C  0.70851959  0.32742011  0.16770982     0.83100
O302        O  0.67220384  0.25887970  0.33470437    -0.79000
O303        O  0.71087844  0.18237027  0.19298540    -0.80500
O304        O  0.85986120  0.22569521  0.22509098    -0.80300
O305        O  0.84893518  0.31325015  0.29613489    -0.78900
Zn306      Zn  0.74102370  0.32016000  0.26423532     1.55700
O307        O  0.81197293  0.22159848  0.16785738    -0.80300
Cd308      Cd  0.82221820  0.25234603  0.27655540     1.59700
Cd309      Cd  0.71900903  0.21874472  0.29999064     1.59600
O310        O  0.82905656  0.20976228  0.32973542    -0.80300
O311        O  0.75758629  0.25771630  0.25973501    -1.90800
Cd312      Cd  0.75084291  0.23875061  0.19615761     1.59900
O313        O  0.76009148  0.18364065  0.34529011    -0.80300
O314        O  0.71949523  0.28737626  0.15790719    -0.78900
C315        C  0.66579695  0.30111386  0.33166652     0.83600
C316        C  0.83210110  0.35234128  0.29929095     0.83300
O317        O  0.71686843  0.34364277  0.20617933    -0.77900
C318        C  0.85103482  0.21591642  0.18466385     0.84100
O319        O  0.69028840  0.32552606  0.30682298    -0.78000
C320        C  0.80266089  0.18510968  0.35250499     0.84200
C321        C  0.68585130  0.16119295  0.22024071     0.84500
O322        O  0.68339642  0.17161428  0.26147167    -0.80400
O323        O  0.22796256  0.15301052  0.28551982    -0.77900
C324        C  0.30472016  0.18975798  0.16624747     0.83100
O325        O  0.34037727  0.25694208  0.33630453    -0.79000
O326        O  0.29590969  0.33358837  0.19563708    -0.80500
O327        O  0.14946359  0.28369152  0.22652161    -0.80300
O328        O  0.16724941  0.19595491  0.29420021    -0.78900
Zn329      Zn  0.27686461  0.19431149  0.26373103     1.55700
O330        O  0.19763528  0.29033754  0.17031988    -0.80300
Cd331      Cd  0.19037140  0.25851584  0.27694420     1.59700
Cd332      Cd  0.29296008  0.29541515  0.30091763     1.59600
O333        O  0.18282802  0.29986499  0.33129107    -0.80300
O334        O  0.25552655  0.25549593  0.26056086    -1.90800
Cd335      Cd  0.25954668  0.27559156  0.19778157     1.59900
O336        O  0.25113064  0.32783940  0.34677306    -0.80300
O337        O  0.29160240  0.22936023  0.15778329    -0.78900
C338        C  0.34942444  0.21516240  0.33355381     0.83600
C339        C  0.18684916  0.15813883  0.29671486     0.83300
O340        O  0.29949495  0.17250196  0.20461004    -0.77900
C341        C  0.15797829  0.29378682  0.18619368     0.84100
O342        O  0.32842363  0.18921939  0.30689092    -0.78000
C343        C  0.20874163  0.32521842  0.35417057     0.84200
C344        C  0.32007190  0.35635051  0.22252907     0.84500
O345        O  0.32501518  0.34537317  0.26334622    -0.80400
O346        O  0.80967002  0.71937651  0.84955894    -0.77900
C347        C  0.71485026  0.83209383  0.85291461     0.83100
O348        O  0.67917027  0.67104562  0.76447704    -0.79000
O349        O  0.68365894  0.82530334  0.71293674    -0.80500
O350        O  0.84619982  0.81164327  0.72172799    -0.80300
O351        O  0.85900186  0.72458481  0.79413097    -0.78900
Zn352      Zn  0.75003590  0.74011542  0.82418139     1.55700
O353        O  0.78971207  0.86014467  0.72379022    -0.80300
Cd354      Cd  0.81958377  0.75160192  0.74364130     1.59700
Cd355      Cd  0.71531547  0.71659009  0.72363969     1.59600
O356        O  0.82416498  0.71050438  0.68908273    -0.80300
O357        O  0.75519970  0.75683933  0.76176209    -1.90800
Cd358      Cd  0.73889979  0.82149286  0.75397032     1.59900
O359        O  0.75528997  0.68222776  0.67658715    -0.80300
O360        O  0.71977282  0.84915514  0.81432134    -0.78900
C361        C  0.68084632  0.66500256  0.80664623     0.83600
C362        C  0.84929711  0.71377116  0.83407136     0.83300
O363        O  0.72565724  0.79158447  0.86075571    -0.77900
C364        C  0.83040069  0.85042405  0.71373569     0.84100
O365        O  0.70656807  0.68848333  0.83153345    -0.78000
C366        C  0.79724592  0.68568881  0.66691991     0.84200
C367        C  0.66102146  0.79811860  0.68887842     0.84500
O368        O  0.66896232  0.75602707  0.68812013    -0.80400
C369        C  0.94075127  0.13492233  0.10694111     0.00400
C370        C  0.91919093  0.17172298  0.08695230    -0.11500
C371        C  0.89146669  0.20035531  0.11188339     0.02700
C372        C  0.88586338  0.19300818  0.15791292     0.00300
C373        C  0.91026397  0.15868039  0.17848792    -0.11400
C374        C  0.93703627  0.12942607  0.15364730     0.02500
H375        H  0.92202971  0.17687955  0.05136052     0.15500
H376        H  0.90618349  0.15284681  0.21388609     0.15500
C377        C  0.95872718  0.09325162  0.17720401     0.37200
C378        C  0.86888763  0.23665950  0.08942833     0.37100
N379        N  0.97562414  0.06412781  0.19625517    -0.43200
N380        N  0.85092749  0.26577310  0.07133450    -0.43200
C381        C  0.10478447  0.94786749  0.13982603     0.00400
C382        C  0.08263745  0.91890031  0.16941246    -0.11500
C383        C  0.10718342  0.89116477  0.19803385     0.02700
C384        C  0.15498741  0.89217970  0.19735251     0.00300
C385        C  0.17677795  0.92499130  0.17166092    -0.11400
C386        C  0.15217143  0.95271173  0.14302947     0.02500
H387        H  0.04613108  0.91578195  0.16826739     0.15500
H388        H  0.21336175  0.92716585  0.17173098     0.15500
C389        C  0.17644269  0.98530622  0.11679800     0.37200
C390        C  0.08236862  0.86131877  0.22690857     0.37100
N391        N  0.19585895  0.01157349  0.09593062    -0.43200
N392        N  0.06237819  0.83752611  0.25005422    -0.43200
C393        C  0.14064486  0.10862244  0.94613209     0.00400
C394        C  0.17514126  0.08729807  0.92180981    -0.11500
C395        C  0.20361671  0.11176138  0.89341798     0.02700
C396        C  0.19759896  0.15836444  0.88894206     0.00300
C397        C  0.16615950  0.18013120  0.91633453    -0.11400
C398        C  0.13827747  0.15595614  0.94520556     0.02500
H399        H  0.17801773  0.05110781  0.92260187     0.15500
H400        H  0.16227498  0.21617977  0.91398994     0.15500
C401        C  0.10727287  0.18073214  0.97296946     0.37200
C402        C  0.23590916  0.08778566  0.86648562     0.37100
N403        N  0.08266268  0.20073907  0.99530917    -0.43200
N404        N  0.26178371  0.06851018  0.84492823    -0.43200
C405        C  0.07088503  0.87781199  0.90845222     0.00400
C406        C  0.10089794  0.84754303  0.92821358    -0.11500
C407        C  0.12799359  0.81948801  0.90218320     0.02700
C408        C  0.12680301  0.82287245  0.85524607     0.00300
C409        C  0.09381110  0.85027405  0.83555310    -0.11400
C410        C  0.06566853  0.87739370  0.86176077     0.02500
H411        H  0.10403332  0.84668857  0.96419195     0.15500
H412        H  0.09174761  0.85259859  0.79959189     0.15500
C413        C  0.03430409  0.90697525  0.83983143     0.37200
C414        C  0.15641671  0.78737799  0.92453646     0.37100
N415        N  0.00902656  0.93058154  0.82231185    -0.43200
N416        N  0.17877434  0.76128605  0.94242369    -0.43200
C417        C  0.91331496  0.06914430  0.87262457     0.00400
C418        C  0.93426569  0.10395743  0.84905341    -0.11500
C419        C  0.91000748  0.13071995  0.81946912     0.02700
C420        C  0.86298219  0.12370291  0.81365268     0.00300
C421        C  0.84310001  0.08581456  0.83366971    -0.11400
C422        C  0.86791319  0.05839178  0.86274924     0.02500
H423        H  0.96965551  0.11141976  0.85506812     0.15500
H424        H  0.80741228  0.07910892  0.82889133     0.15500
C425        C  0.84507465  0.02163967  0.88436508     0.37200
C426        C  0.93442391  0.16586676  0.79674790     0.37100
N427        N  0.82677084  0.99204465  0.90149742    -0.43200
N428        N  0.95413388  0.19397637  0.77867648    -0.43200
C429        C  0.87434825  0.90995456  0.06838294     0.00400
C430        C  0.85075260  0.92961267  0.10405607    -0.11500
C431        C  0.82281757  0.90402884  0.13176275     0.02700
C432        C  0.81843130  0.85758600  0.12442564     0.00300
C433        C  0.83949356  0.83831053  0.08707921    -0.11400
C434        C  0.86668982  0.86421341  0.05860343     0.02500
H435        H  0.85595036  0.96479586  0.11170812     0.15500
H436        H  0.83628565  0.80256536  0.08129932     0.15500
C437        C  0.88890249  0.84230115  0.02177917     0.37200
C438        C  0.80247113  0.92543131  0.16995376     0.37100
N439        N  0.90649680  0.82471459  0.99214067    -0.43200
N440        N  0.78629991  0.94256284  0.20062592    -0.43200
C441        C  0.60391783  0.07218887  0.14392715     0.00400
C442        C  0.64961065  0.06184282  0.15056707    -0.11500
C443        C  0.67647959  0.08830896  0.17891852     0.02700
C444        C  0.65733621  0.12505013  0.20171730     0.00300
C445        C  0.61075872  0.13228581  0.19883217    -0.11400
C446        C  0.58401031  0.10639751  0.17005114     0.02500
H447        H  0.66506605  0.03531262  0.13121478     0.15500
H448        H  0.59586292  0.16034561  0.21643041     0.15500
C449        C  0.53651691  0.11683680  0.16654904     0.37200
C450        C  0.72399931  0.07840236  0.18283805     0.37100
N451        N  0.49849928  0.12521278  0.16363940    -0.43200
N452        N  0.76205533  0.07041025  0.18622561    -0.43200
C453        C  0.32791507  0.16308079  0.13156830     0.00400
C454        C  0.32427959  0.11622182  0.13326023    -0.11500
C455        C  0.35069149  0.08888451  0.10594567     0.02700
C456        C  0.38189159  0.10850558  0.07609847     0.00300
C457        C  0.38356597  0.15541432  0.07251362    -0.11400
C458        C  0.35687537  0.18276641  0.09969854     0.02500
H459        H  0.30180608  0.10076626  0.15724464     0.15500
H460        H  0.40713088  0.17086666  0.04957211     0.15500
C461        C  0.36253990  0.23072524  0.09623102     0.37200
C462        C  0.34730723  0.04097976  0.11201733     0.37100
N463        N  0.36718582  0.26912780  0.09337498    -0.43200
N464        N  0.34459511  0.00262824  0.11699095    -0.43200
C465        C  0.44693022  0.87745574  0.10836975     0.00400
C466        C  0.44792852  0.88216839  0.15479884    -0.11500
C467        C  0.41879541  0.85692938  0.18185603     0.02700
C468        C  0.38856411  0.82550836  0.16256238     0.00300
C469        C  0.39051145  0.81801711  0.11643219    -0.11400
C470        C  0.41890650  0.84405984  0.08929107     0.02500
H471        H  0.46915143  0.90781478  0.16973770     0.15500
H472        H  0.36773970  0.79389629  0.10122360     0.15500
C473        C  0.41759355  0.83715032  0.04169148     0.37200
C474        C  0.41969604  0.86479144  0.22931189     0.37100
N475        N  0.41669354  0.83169947  0.00353715    -0.43200
N476        N  0.42044375  0.87112516  0.26733656    -0.43200
C477        C  0.64225449  0.91498013  0.94585333     0.00400
C478        C  0.64363955  0.86858893  0.95248417    -0.11500
C479        C  0.66860839  0.84084204  0.92395121     0.02700
C480        C  0.69398966  0.85982818  0.88864054     0.00300
C481        C  0.69544924  0.90672148  0.88463800    -0.11400
C482        C  0.66970432  0.93422357  0.91252165     0.02500
H483        H  0.62214171  0.85359952  0.97760235     0.15500
H484        H  0.71524243  0.92196277  0.85835967     0.15500
C485        C  0.67087001  0.98206226  0.90522592     0.37200
C486        C  0.66357720  0.79300668  0.92918870     0.37100
N487        N  0.67186300  0.02033404  0.89919933    -0.43200
N488        N  0.65911091  0.75470304  0.93326478    -0.43200
C489        C  0.57247171  0.13577807  0.90504139     0.00400
C490        C  0.59644386  0.17223346  0.92349023    -0.11500
C491        C  0.62440871  0.19924144  0.89698275     0.02700
C492        C  0.62885385  0.18973348  0.85114251     0.00300
C493        C  0.60187406  0.15602876  0.83210514    -0.11400
C494        C  0.57348381  0.12951379  0.85828797     0.02500
H495        H  0.59561788  0.17805905  0.95913282     0.15500
H496        H  0.60411116  0.14939346  0.79662916     0.15500
C497        C  0.54650473  0.09573303  0.83606933     0.37200
C498        C  0.65089309  0.23393473  0.91829934     0.37100
N499        N  0.52489989  0.06875917  0.81814699    -0.43200
N500        N  0.67210028  0.26175782  0.93537568    -0.43200
C501        C  0.35760219  0.88788045  0.82427438     0.00400
C502        C  0.33601119  0.91368584  0.85693587    -0.11500
C503        C  0.36061084  0.94099231  0.88603276     0.02700
C504        C  0.40828617  0.94316676  0.88262716     0.00300
C505        C  0.42959329  0.91967332  0.84777915    -0.11400
C506        C  0.40475570  0.89178095  0.81898077     0.02500
H507        H  0.29970947  0.91098004  0.86098899     0.15500
H508        H  0.46605146  0.92065364  0.84479768     0.15500
C509        C  0.42891279  0.86423389  0.78745201     0.37200
C510        C  0.33574781  0.96491519  0.91993561     0.37100
N511        N  0.44832187  0.84187465  0.76246529    -0.43200
N512        N  0.31573466  0.98368336  0.94727170    -0.43200
C513        C  0.07966303  0.13056952  0.59853678     0.00400
C514        C  0.06937104  0.13445636  0.64398784    -0.11500
C515        C  0.09690020  0.15994989  0.67284718     0.02700
C516        C  0.13560042  0.18255125  0.65615740     0.00300
C517        C  0.14392882  0.18076393  0.61015436    -0.11400
C518        C  0.11657129  0.15542158  0.58150941     0.02500
H519        H  0.04138472  0.11537362  0.65753188     0.15500
H520        H  0.17267166  0.19856629  0.59641310     0.15500
C521        C  0.12764631  0.15515926  0.53464179     0.37200
C522        C  0.08606194  0.15965371  0.71968847     0.37100
N523        N  0.13655663  0.15488366  0.49713691    -0.43200
N524        N  0.07721606  0.15923985  0.75720347    -0.43200
C525        C  0.10699208  0.06323497  0.36801382     0.00400
C526        C  0.15429087  0.06251106  0.37211565    -0.11500
C527        C  0.18157513  0.09074900  0.34667913     0.02700
C528        C  0.16146913  0.12019630  0.31585243     0.00300
C529        C  0.11477333  0.11739657  0.30818539    -0.11400
C530        C  0.08740972  0.08902606  0.33362751     0.02500
H531        H  0.16996629  0.04202094  0.39753665     0.15500
H532        H  0.09926241  0.13927915  0.28382878     0.15500
C533        C  0.03930915  0.08995149  0.32568518     0.37200
C534        C  0.22932592  0.09211820  0.35664713     0.37100
N535        N  0.00082444  0.09082278  0.31899040    -0.43200
N536        N  0.26748601  0.09324748  0.36497202    -0.43200
C537        C  0.91098730  0.93711327  0.62970727     0.00400
C538        C  0.93136756  0.90292822  0.65445015    -0.11500
C539        C  0.90669086  0.87686377  0.68448247     0.02700
C540        C  0.85958482  0.88354857  0.68954849     0.00300
C541        C  0.83973141  0.91998929  0.66704039    -0.11400
C542        C  0.86505954  0.94694382  0.63764461     0.02500
H543        H  0.96697684  0.89593964  0.64968337     0.15500
H544        H  0.80391116  0.92630692  0.67079338     0.15500
C545        C  0.84254025  0.98265092  0.61424563     0.37200
C546        C  0.93109853  0.84336793  0.70930041     0.37100
N547        N  0.82449931  0.01142955  0.59570043    -0.43200
N548        N  0.95081635  0.81666638  0.72919730    -0.43200
C549        C  0.82345284  0.15697976  0.38750364     0.00400
C550        C  0.81817110  0.11028488  0.38555736    -0.11500
C551        C  0.84565055  0.08216799  0.41135819     0.02700
C552        C  0.87816891  0.10082906  0.44070567     0.00300
C553        C  0.88064047  0.14752795  0.44534208    -0.11400
C554        C  0.85416356  0.17557454  0.41859917     0.02500
H555        H  0.79482643  0.09570487  0.36173094     0.15500
H556        H  0.90555751  0.16217307  0.46752286     0.15500
C557        C  0.86037973  0.22345769  0.42230900     0.37200
C558        C  0.84089293  0.03424974  0.40607535     0.37100
N559        N  0.86531486  0.26185182  0.42496610    -0.43200
N560        N  0.83706697  0.99586930  0.40178620    -0.43200
C561        C  0.14530393  0.90759376  0.56654862     0.00400
C562        C  0.14556227  0.86066286  0.56372705    -0.11500
C563        C  0.17372212  0.83525244  0.59115813     0.02700
C564        C  0.20182315  0.85668680  0.62274457     0.00300
C565        C  0.20497133  0.90355439  0.62270635    -0.11400
C566        C  0.17710456  0.92919239  0.59485006     0.02500
H567        H  0.12249482  0.84368820  0.54117707     0.15500
H568        H  0.22665786  0.92021512  0.64676803     0.15500
C569        C  0.17914001  0.97740055  0.59908824     0.37200
C570        C  0.17252639  0.78702190  0.58709161     0.37100
N571        N  0.18073376  0.01601976  0.60246923    -0.43200
N572        N  0.17189584  0.74839204  0.58368958    -0.43200
C573        C  0.89430756  0.81690341  0.34746488     0.00400
C574        C  0.91662003  0.85275625  0.32705925    -0.11500
C575        C  0.94410557  0.88162367  0.35175995     0.02700
C576        C  0.95043677  0.87403973  0.39793611     0.00300
C577        C  0.93192704  0.83512416  0.41704325    -0.11400
C578        C  0.90359323  0.80684169  0.39230420     0.02500
H579        H  0.90986357  0.86030041  0.29236930     0.15500
H580        H  0.93711041  0.82823427  0.45209261     0.15500
C581        C  0.88373544  0.76831917  0.41378603     0.37200
C582        C  0.96311669  0.91984076  0.32893138     0.37100
N583        N  0.86796130  0.73735594  0.43096089    -0.43200
N584        N  0.97776859  0.95056979  0.31042684    -0.43200
C585        C  0.13799261  0.60319729  0.07509109     0.00400
C586        C  0.13048905  0.64964550  0.07574675    -0.11500
C587        C  0.15708659  0.67844261  0.10167895     0.02700
C588        C  0.19257457  0.66121520  0.12804781     0.00300
C589        C  0.20269186  0.61539715  0.12480760    -0.11400
C590        C  0.17580959  0.58631405  0.09878494     0.02500
H591        H  0.10259065  0.66361066  0.05700643     0.15500
H592        H  0.22977453  0.60175016  0.14489331     0.15500
C593        C  0.18630351  0.53913689  0.09958096     0.37200
C594        C  0.14632619  0.72564271  0.10139762     0.37100
N595        N  0.19486211  0.50134594  0.10027851    -0.43200
N596        N  0.13755887  0.76339636  0.10124604    -0.43200
C597        C  0.12204184  0.31344835  0.15775796     0.00400
C598        C  0.08854170  0.34003076  0.17783285    -0.11500
C599        C  0.06110119  0.36828912  0.15222477     0.02700
C600        C  0.06684781  0.36998234  0.10565358     0.00300
C601        C  0.09712931  0.34024148  0.08530054    -0.11400
C602        C  0.12427325  0.31178870  0.11073182     0.02500
H603        H  0.08606761  0.34143143  0.21381936     0.15500
H604        H  0.10099712  0.34066852  0.04939521     0.15500
C605        C  0.15479950  0.28207161  0.08762934     0.37200
C606        C  0.03075968  0.39842691  0.17490624     0.37100
N607        N  0.17912962  0.25821433  0.06904636    -0.43200
N608        N  0.00660038  0.42269263  0.19316325    -0.43200
C609        C  0.10814087  0.43742126  0.87925701     0.00400
C610        C  0.15544318  0.43963148  0.88200708    -0.11500
C611        C  0.18276708  0.41295005  0.85476016     0.02700
C612        C  0.16271880  0.38298840  0.82380944     0.00300
C613        C  0.11553359  0.38274134  0.81921224    -0.11400
C614        C  0.08820804  0.40957411  0.84634152     0.02500
H615        H  0.17120568  0.46098696  0.90692077     0.15500
H616        H  0.09975050  0.36006503  0.79549320     0.15500
C617        C  0.03984096  0.40489952  0.84185328     0.37200
C618        C  0.23098082  0.41447687  0.86214525     0.37100
N619        N  0.00110490  0.40101722  0.83827444    -0.43200
N620        N  0.26957460  0.41561741  0.86820201    -0.43200
C621        C  0.91249042  0.56642933  0.13943939     0.00400
C622        C  0.86720980  0.55512977  0.14791902    -0.11500
C623        C  0.84004355  0.58261519  0.17508467     0.02700
C624        C  0.85827142  0.62250566  0.19380289     0.00300
C625        C  0.90485900  0.63042311  0.18931775    -0.11400
C626        C  0.93187011  0.60294671  0.16279539     0.02500
H627        H  0.85224516  0.52649234  0.13113399     0.15500
H628        H  0.92014679  0.65948824  0.20509506     0.15500
C629        C  0.97934610  0.61388751  0.15925594     0.37200
C630        C  0.79332738  0.57008797  0.18107517     0.37100
N631        N  0.01732069  0.62271058  0.15638968    -0.43200
N632        N  0.75598993  0.55967205  0.18603828    -0.43200
C633        C  0.88395123  0.69102683  0.86195476     0.00400
C634        C  0.91705286  0.66512272  0.84065355    -0.11500
C635        C  0.94539418  0.63657029  0.86466663     0.02700
C636        C  0.94142688  0.63376559  0.91149853     0.00300
C637        C  0.91107377  0.66251447  0.93326615    -0.11400
C638        C  0.88232164  0.69078999  0.90910429     0.02500
H639        H  0.91940347  0.66534023  0.80419996     0.15500
H640        H  0.90802334  0.66120098  0.96931054     0.15500
C641        C  0.85123181  0.71872287  0.93359611     0.37200
C642        C  0.97784027  0.61007983  0.84033820     0.37100
N643        N  0.82638553  0.74109728  0.95330406    -0.43200
N644        N  0.00380182  0.58889944  0.82074351    -0.43200
C645        C  0.82214500  0.35080386  0.88493123     0.00400
C646        C  0.85028842  0.33027132  0.91655726    -0.11500
C647        C  0.87733879  0.35598639  0.94545032     0.02700
C648        C  0.87710379  0.40313716  0.94225566     0.00300
C649        C  0.84732971  0.42358861  0.91209269    -0.11400
C650        C  0.81972839  0.39792910  0.88381229     0.02500
H651        H  0.85264915  0.29404868  0.91728930     0.15500
H652        H  0.84729141  0.45977350  0.90909534     0.15500
C653        C  0.79254487  0.42068955  0.85103755     0.37200
C654        C  0.90790250  0.33318104  0.97515209     0.37100
N655        N  0.77085206  0.43878306  0.82460430    -0.43200
N656        N  0.93243233  0.31486928  0.99889356    -0.43200
C657        C  0.43838104  0.13695935  0.41493536     0.00400
C658        C  0.40175894  0.15998754  0.43415860    -0.11500
C659        C  0.37464321  0.18878075  0.40888819     0.02700
C660        C  0.38348533  0.19464743  0.36321866     0.00300
C661        C  0.42135616  0.17366462  0.34439714    -0.11400
C662        C  0.44919917  0.14558236  0.36991899     0.02500
H663        H  0.39316520  0.15413310  0.46873147     0.15500
H664        H  0.42810809  0.17778811  0.30917786     0.15500
C665        C  0.48655539  0.12365111  0.34816530     0.37200
C666        C  0.33578125  0.20911378  0.42967237     0.37100
N667        N  0.51660761  0.10618576  0.33077298    -0.43200
N668        N  0.30457790  0.22538363  0.44621560    -0.43200
C669        C  0.60588244  0.94343309  0.37552860     0.00400
C670        C  0.58603434  0.91389264  0.34456846    -0.11500
C671        C  0.61267638  0.88695031  0.31664213     0.02700
C672        C  0.66020012  0.88809672  0.32061422     0.00300
C673        C  0.68002102  0.91954510  0.34970198    -0.11400
C674        C  0.65334805  0.94764424  0.37645296     0.02500
H675        H  0.54956457  0.91047155  0.34356066     0.15500
H676        H  0.71648951  0.92090683  0.35282135     0.15500
C677        C  0.67550709  0.97789643  0.40715377     0.37200
C678        C  0.59037420  0.85584690  0.28687027     0.37100
N679        N  0.69318518  0.00226296  0.43170502    -0.43200
N680        N  0.57253149  0.83100795  0.26290277    -0.43200
C681        C  0.64290942  0.10152983  0.56431545     0.00400
C682        C  0.64350911  0.14809105  0.55826585    -0.11500
C683        C  0.67000895  0.17582597  0.58580368     0.02700
C684        C  0.69685729  0.15666479  0.61987356     0.00300
C685        C  0.69975236  0.10973122  0.62230321    -0.11400
C686        C  0.67315895  0.08223229  0.59502575     0.02500
H687        H  0.62047515  0.16310487  0.53456315     0.15500
H688        H  0.72123421  0.09436251  0.64716490     0.15500
C689        C  0.67625191  0.03422321  0.60032304     0.37200
C690        C  0.66554962  0.22370249  0.58082917     0.37100
N691        N  0.67869141  0.99577543  0.60450833    -0.43200
N692        N  0.66181973  0.26206227  0.57682142    -0.43200
C693        C  0.57180319  0.87479567  0.60739361     0.00400
C694        C  0.59916532  0.84179266  0.58762232    -0.11500
C695        C  0.62610787  0.81351848  0.61375876     0.02700
C696        C  0.62541858  0.81772026  0.66053473     0.00300
C697        C  0.59528668  0.84798216  0.68028599    -0.11400
C698        C  0.56846076  0.87622645  0.65433669     0.02500
H699        H  0.60200840  0.84015180  0.55165493     0.15500
H700        H  0.59429050  0.85103277  0.71628702     0.15500
C701        C  0.53854394  0.90693080  0.67690256     0.37200
C702        C  0.65752651  0.78392012  0.59179637     0.37100
N703        N  0.51458521  0.93147715  0.69505668    -0.43200
N704        N  0.68298410  0.76044048  0.57425883    -0.43200
C705        C  0.36632089  0.12583138  0.70154107     0.00400
C706        C  0.34404939  0.09419933  0.67477470    -0.11500
C707        C  0.36808875  0.06538655  0.64685662     0.02700
C708        C  0.41569177  0.06859996  0.64446391     0.00300
C709        C  0.43826561  0.09728401  0.67458574    -0.11400
C710        C  0.41393471  0.12579673  0.70316852     0.02500
H711        H  0.30740130  0.09333206  0.67426945     0.15500
H712        H  0.47480234  0.09970838  0.67372544     0.15500
C713        C  0.43843481  0.15703364  0.73104503     0.37200
C714        C  0.34273052  0.03357045  0.62036964     0.37100
N715        N  0.45820352  0.18194032  0.75342803    -0.43200
N716        N  0.32221153  0.00808351  0.59933784    -0.43200
C717        C  0.37476556  0.90711012  0.44736928     0.00400
C718        C  0.34421967  0.92981342  0.41971297    -0.11500
C719        C  0.31588380  0.90627472  0.39046402     0.02700
C720        C  0.31733953  0.85901564  0.38914014     0.00300
C721        C  0.34456186  0.83632383  0.42001592    -0.11400
C722        C  0.37337475  0.85983442  0.44877789     0.02500
H723        H  0.34444118  0.96614928  0.41882542     0.15500
H724        H  0.34543332  0.79998926  0.41990966     0.15500
C725        C  0.40175602  0.83453797  0.47862461     0.37200
C726        C  0.28631687  0.93149947  0.36174464     0.37100
N727        N  0.42440290  0.81411829  0.50247738    -0.43200
N728        N  0.26263229  0.95187069  0.33885619    -0.43200
C729        C  0.37106406  0.60725759  0.94631228     0.00400
C730        C  0.37185405  0.65414405  0.95062401    -0.11500
C731        C  0.34632960  0.68143511  0.92233154     0.02700
C732        C  0.31987498  0.66177690  0.88812321     0.00300
C733        C  0.31685419  0.61484085  0.88576085    -0.11400
C734        C  0.34170383  0.58756889  0.91454206     0.02500
H735        H  0.39382610  0.66965895  0.97520696     0.15500
H736        H  0.29619396  0.59925689  0.86013566     0.15500
C737        C  0.33878789  0.53963221  0.90823367     0.37200
C738        C  0.35048524  0.72940879  0.92750259     0.37100
N739        N  0.33637121  0.50123944  0.90317105    -0.43200
N740        N  0.35374084  0.76783756  0.93179040    -0.43200
C741        C  0.34416441  0.39535493  0.20382298     0.00400
C742        C  0.39048337  0.40026746  0.21180613    -0.11500
C743        C  0.41706502  0.42762931  0.18438445     0.02700
C744        C  0.39701265  0.45026884  0.14783888     0.00300
C745        C  0.34979286  0.44928376  0.14351594    -0.11400
C746        C  0.32334347  0.42256398  0.17144482     0.02500
H747        H  0.40654137  0.38001188  0.23715404     0.15500
H748        H  0.33359664  0.46793680  0.11706523     0.15500
C749        C  0.27489700  0.42256216  0.16555560     0.37200
C750        C  0.46511065  0.42866060  0.19271817     0.37100
N751        N  0.23605149  0.42251485  0.16129956    -0.43200
N752        N  0.50356257  0.42947961  0.19964515    -0.43200
C753        C  0.62609640  0.69384565  0.16414919     0.00400
C754        C  0.60596671  0.65689123  0.18492415    -0.11500
C755        C  0.57653321  0.62863047  0.16199401     0.02700
C756        C  0.56619160  0.63724536  0.11666759     0.00300
C757        C  0.58318109  0.67670019  0.09709766    -0.11400
C758        C  0.61304182  0.70496834  0.12042733     0.02500
H759        H  0.61489619  0.64881332  0.21901495     0.15500
H760        H  0.57537432  0.68417089  0.06266104     0.15500
C761        C  0.63227120  0.74298916  0.09763440     0.37200
C762        C  0.55965643  0.59005906  0.18590493     0.37100
N763        N  0.64763602  0.77348530  0.07932370    -0.43200
N764        N  0.54676834  0.55906447  0.20522435    -0.43200
C765        C  0.62826640  0.41194021  0.08220387     0.00400
C766        C  0.63393349  0.36669552  0.07085851    -0.11500
C767        C  0.66096334  0.33845165  0.09708046     0.02700
C768        C  0.68397803  0.35591961  0.13491517     0.00300
C769        C  0.68028486  0.40194442  0.14419570    -0.11400
C770        C  0.65256870  0.42967528  0.11881721     0.02500
H771        H  0.61487083  0.35269514  0.04322012     0.15500
H772        H  0.69789555  0.41632180  0.17256674     0.15500
C773        C  0.64871991  0.47614735  0.13206170     0.37200
C774        C  0.66151126  0.29133950  0.08602284     0.37100
N775        N  0.64536740  0.51322557  0.14293803    -0.43200
N776        N  0.66159516  0.25355856  0.07720431    -0.43200
C777        C  0.59934093  0.57711641  0.88735167     0.00400
C778        C  0.57892518  0.61024041  0.86088502    -0.11500
C779        C  0.60440318  0.63667255  0.83142851     0.02700
C780        C  0.65158413  0.63106691  0.82869594     0.00300
C781        C  0.67179797  0.59674316  0.85366554    -0.11400
C782        C  0.64609957  0.56936524  0.88220221     0.02500
H783        H  0.54303191  0.61646557  0.86425397     0.15500
H784        H  0.70809680  0.59237663  0.85206960     0.15500
C785        C  0.66911201  0.53583082  0.90815973     0.37200
C786        C  0.58183870  0.67146257  0.80673543     0.37100
N787        N  0.68755191  0.50887463  0.92889121    -0.43200
N788        N  0.56370834  0.69931719  0.78693673    -0.43200
C789        C  0.38911556  0.32085212  0.86156320     0.00400
C790        C  0.42180194  0.34953458  0.84314229    -0.11500
C791        C  0.44830261  0.37752313  0.87028337     0.02700
C792        C  0.44110847  0.37820561  0.91670673     0.00300
C793        C  0.41034936  0.34757494  0.93531982    -0.11400
C794        C  0.38494228  0.31850412  0.90828451     0.02500
H795        H  0.42533465  0.35138652  0.80724915     0.15500
H796        H  0.40482863  0.34764897  0.97102149     0.15500
C797        C  0.35230018  0.28925989  0.92909102     0.37200
C798        C  0.47999433  0.40767398  0.84936586     0.37100
N799        N  0.32624890  0.26572247  0.94577732    -0.43200
N800        N  0.50553862  0.43173396  0.83266145    -0.43200
C801        C  0.13224443  0.40665717  0.44465397     0.00400
C802        C  0.17064790  0.42484896  0.42370279    -0.11500
C803        C  0.19833143  0.39832226  0.39641481     0.02700
C804        C  0.18759408  0.35266624  0.38960478     0.00300
C805        C  0.15174629  0.33372093  0.41358688    -0.11400
C806        C  0.12448393  0.35987965  0.44122284     0.02500
H807        H  0.17765734  0.46044292  0.42641729     0.15500
H808        H  0.14403502  0.29836036  0.40955211     0.15500
C809        C  0.08830182  0.33758636  0.46472021     0.37200
C810        C  0.23516626  0.41965407  0.37312365     0.37100
N811        N  0.05934107  0.31964274  0.48347279    -0.43200
N812        N  0.26468293  0.43684415  0.35452458    -0.43200
C813        C  0.81693157  0.65960160  0.62978404     0.00400
C814        C  0.81469904  0.61276238  0.63117546    -0.11500
C815        C  0.84264683  0.58669835  0.60384256     0.02700
C816        C  0.87278229  0.60752499  0.57376330     0.00300
C817        C  0.87185937  0.65427126  0.56937912    -0.11400
C818        C  0.84454247  0.68040320  0.59739383     0.02500
H819        H  0.79357483  0.59655630  0.65584765     0.15500
H820        H  0.89469579  0.67054141  0.54628477     0.15500
C821        C  0.84647772  0.72860859  0.59341450     0.37200
C822        C  0.84114002  0.53856633  0.60844734     0.37100
N823        N  0.84788720  0.76722495  0.59024372    -0.43200
N824        N  0.84007809  0.49999093  0.61207171    -0.43200
C825        C  0.11028020  0.57623094  0.63267654     0.00400
C826        C  0.08936424  0.59921354  0.66799485    -0.11500
C827        C  0.11438687  0.62699144  0.69648520     0.02700
C828        C  0.16133382  0.63170376  0.69015472     0.00300
C829        C  0.18283413  0.60566785  0.65760411    -0.11400
C830        C  0.15789396  0.57822471  0.62881889     0.02500
H831        H  0.05302801  0.59740024  0.67205958     0.15500
H832        H  0.21904562  0.60867788  0.65292612     0.15500
C833        C  0.18221492  0.55336625  0.59523670     0.37200
C834        C  0.09108993  0.65052906  0.73167658     0.37100
N835        N  0.20190271  0.53360526  0.56836896    -0.43200
N836        N  0.07246673  0.66925782  0.75997844    -0.43200
C837        C  0.88615331  0.32516669  0.65728131     0.00400
C838        C  0.88513783  0.32156954  0.61071108    -0.11500
C839        C  0.91200707  0.34926367  0.58406881     0.02700
C840        C  0.94023570  0.38198730  0.60418038     0.00300
C841        C  0.94324508  0.38358245  0.65082535    -0.11400
C842        C  0.91676041  0.35557348  0.67742169     0.02500
H843        H  0.86205305  0.29802315  0.59498245     0.15500
H844        H  0.96509604  0.40815231  0.66672510     0.15500
C845        C  0.91918694  0.36152451  0.72513634     0.37200
C846        C  0.90739562  0.34513477  0.53634296     0.37100
N847        N  0.92106335  0.36634728  0.76334239    -0.43200
N848        N  0.90372173  0.34174939  0.49811408    -0.43200
C849        C  0.12066328  0.69450636  0.35266838     0.00400
C850        C  0.12101534  0.69970809  0.39913247    -0.11500
C851        C  0.09298512  0.67370630  0.42615052     0.02700
C852        C  0.06397706  0.64152060  0.40683378     0.00300
C853        C  0.06057302  0.63882325  0.36035813    -0.11400
C854        C  0.08861329  0.66499828  0.33308339     0.02500
H855        H  0.14456253  0.72300436  0.41458105     0.15500
H856        H  0.03844614  0.61387402  0.34539304     0.15500
C857        C  0.08646107  0.65783302  0.28553893     0.37200
C858        C  0.09547794  0.67959219  0.47385160     0.37100
N859        N  0.08474360  0.65201801  0.24745623    -0.43200
N860        N  0.09722953  0.68436735  0.51206254    -0.43200
C861        C  0.85945470  0.38877248  0.32014538     0.00400
C862        C  0.83726097  0.42406210  0.34235531    -0.11500
C863        C  0.86101788  0.45350262  0.37059147     0.02700
C864        C  0.90776214  0.44755792  0.37717301     0.00300
C865        C  0.93046035  0.41512136  0.35180031    -0.11400
C866        C  0.90705027  0.38628081  0.32311702     0.02500
H867        H  0.80085876  0.42704014  0.33993602     0.15500
H868        H  0.96668076  0.41123135  0.35562510     0.15500
C869        C  0.93291316  0.35420629  0.29769205     0.37200
C870        C  0.83610957  0.48705217  0.39494321     0.37100
N871        N  0.95380167  0.32872272  0.27724336    -0.43200
N872        N  0.81609300  0.51402008  0.41432719    -0.43200
C873        C  0.35516438  0.63307568  0.32459503     0.00400
C874        C  0.40242506  0.63409552  0.32121841    -0.11500
C875        C  0.42947363  0.60778648  0.34942709     0.02700
C876        C  0.40903758  0.57905495  0.38121154     0.00300
C877        C  0.36174383  0.57631228  0.38249020    -0.11400
C878        C  0.33492772  0.60293265  0.35484985     0.02500
H879        H  0.41829479  0.65777310  0.29876418     0.15500
H880        H  0.34551091  0.55423627  0.40625905     0.15500
C881        C  0.28643706  0.59961738  0.35907695     0.37200
C882        C  0.47782937  0.61420165  0.34777682     0.37100
N883        N  0.24759093  0.59715850  0.36250903    -0.43200
N884        N  0.51653817  0.61961896  0.34667189    -0.43200
C885        C  0.60629255  0.44473039  0.64111316     0.00400
C886        C  0.58486198  0.41341110  0.66903974    -0.11500
C887        C  0.60995253  0.38452662  0.69629536     0.02700
C888        C  0.65753397  0.38563075  0.69477066     0.00300
C889        C  0.67889365  0.41891958  0.66926020    -0.11400
C890        C  0.65374507  0.44895175  0.64327748     0.02500
H891        H  0.54838221  0.41013592  0.66804398     0.15500
H892        H  0.71548809  0.42033726  0.66831061     0.15500
C893        C  0.67769418  0.48142822  0.61667935     0.37200
C894        C  0.58616662  0.35184707  0.72283633     0.37100
N895        N  0.69705820  0.50758746  0.59563511    -0.43200
N896        N  0.56698644  0.32581240  0.74419797    -0.43200
C897        C  0.32285030  0.35290600  0.62672731     0.00400
C898        C  0.35239621  0.33242941  0.59635437    -0.11500
C899        C  0.37996637  0.35822863  0.56837147     0.02700
C900        C  0.37801755  0.40557497  0.57032522     0.00300
C901        C  0.34500401  0.42571119  0.59719166    -0.11400
C902        C  0.31766009  0.39998261  0.62530096     0.02500
H903        H  0.35605209  0.29627529  0.59632901     0.15500
H904        H  0.34233401  0.46193841  0.59837432     0.15500
C905        C  0.28527852  0.42299314  0.65300783     0.37200
C906        C  0.41043212  0.33521665  0.53861322     0.37100
N907        N  0.25935389  0.44156654  0.67511112    -0.43200
N908        N  0.43472791  0.31672077  0.51470433    -0.43200
C909        C  0.63767569  0.60547489  0.44307390     0.00400
C910        C  0.65479712  0.58657450  0.40374483    -0.11500
C911        C  0.68023691  0.61151791  0.37367516     0.02700
C912        C  0.69133194  0.65681525  0.38327573     0.00300
C913        C  0.67705102  0.67493948  0.42443987    -0.11400
C914        C  0.65000291  0.64991254  0.45402587     0.02500
H915        H  0.64610679  0.55227316  0.39503642     0.15500
H916        H  0.68496868  0.70949332  0.43259837     0.15500
C917        C  0.63264870  0.67165657  0.49339846     0.37200
C918        C  0.69170133  0.58967247  0.33218365     0.37100
N919        N  0.61850862  0.68910686  0.52486778    -0.43200
N920        N  0.70005208  0.57211139  0.29879289    -0.43200
C921        C  0.44720912  0.64001275  0.60886027     0.00400
C922        C  0.41847913  0.67107552  0.58819185    -0.11500
C923        C  0.39203132  0.70061313  0.61345293     0.02700
C924        C  0.39310424  0.69828573  0.66031865     0.00300
C925        C  0.42400808  0.66928641  0.68089394    -0.11400
C926        C  0.45145789  0.64071525  0.65559521     0.02500
H927        H  0.41522678  0.67087544  0.55222826     0.15500
H928        H  0.42502661  0.66734375  0.71692111     0.15500
C929        C  0.48071740  0.60980108  0.67849168     0.37200
C930        C  0.36133858  0.73018614  0.59057955     0.37100
N931        N  0.50421914  0.58507634  0.69685996    -0.43200
N932        N  0.33684766  0.75397282  0.57223065    -0.43200
C933        C  0.62946025  0.32386586  0.35711818     0.00400
C934        C  0.62000936  0.31148814  0.40121324    -0.11500
C935        C  0.59212124  0.33822376  0.42837409     0.02700
C936        C  0.57329462  0.37835741  0.41127159     0.00300
C937        C  0.57952016  0.38786647  0.36588848    -0.11400
C938        C  0.60703991  0.36137655  0.33899936     0.02500
H939        H  0.63628911  0.28224395  0.41521242     0.15500
H940        H  0.56413246  0.41731381  0.35132978     0.15500
C941        C  0.61216645  0.37422725  0.29288505     0.37200
C942        C  0.58494585  0.32421699  0.47376908     0.37100
N943        N  0.61630032  0.38471698  0.25605298    -0.43200
N944        N  0.57909607  0.31263792  0.51004472    -0.43200
loop_ 
_geom_bond_atom_site_label_1 
_geom_bond_atom_site_label_2 
_geom_bond_distance 
_geom_bond_site_symmetry_2 
_ccdc_geom_bond_type 
O1           C17   1.274       .  A
O1           Zn7   2.012       .  S
C2           O18   1.275       .  A
C2           O15   1.275       .  A
C2          C936   1.496       .  S
O3           C16   1.281       .  A
O3          Cd10   2.118       .  S
O4           C22   1.271       .  A
O4          Cd13   2.025       .  S
O5           C19   1.276       .  A
O5           Cd9   2.084       .  S
O6           C17   1.277       .  A
O6           Cd9   2.082       .  S
Zn7          O18   2.041       .  S
Zn7          O20   2.009       .  S
Zn7          O12   1.949       .  S
O8           C19   1.272       .  A
O8          Cd13   2.073       .  S
Cd9          O11   2.059       .  S
Cd9          O12   1.998       .  S
Cd10         O14   2.104       .  S
Cd10         O23   2.121       .  S
Cd10         O12   2.037       .  S
O11          C21   1.274       .  A
O12         Cd13   1.981       .  S
Cd13         O15   2.056       .  S
O14          C21   1.280       .  A
C16          O20   1.274       .  A
C16         C885   1.489       .  S
C17         C900   1.486       .  S
C19         C876   1.492       .  S
C21         C921   1.480       .  S
C22          O23   1.280       .  A
C22         C909   1.489       .  S
O24          C40   1.271       .  A
O24         Zn30   1.998   1_455  S
C25          O41   1.272       .  A
C25          O38   1.273       .  A
C25         C840   1.483       .  S
O26          C39   1.278       .  A
O26         Cd33   2.103       .  S
O27          C45   1.273       .  A
O27         Cd36   2.053       .  S
O28          C42   1.273       .  A
O28         Cd32   2.057       .  S
O29          C40   1.274       .  A
O29         Cd32   2.081       .  S
Zn30         O41   2.007       .  S
Zn30         O43   1.983       .  S
Zn30         O35   1.925   1_655  S
O31          C42   1.275       .  A
O31         Cd36   2.068   1_455  S
Cd32         O34   2.047       .  S
Cd32         O35   1.993       .  S
Cd33         O37   2.099   1_655  S
Cd33         O46   2.109       .  S
Cd33         O35   2.028   1_655  S
O34          C44   1.273       .  A
O35         Cd36   1.991   1_455  S
Cd36         O38   2.058       .  S
O37          C44   1.278       .  A
C39          O43   1.271       .  A
C39         C864   1.481       .  S
C40         C801   1.491       .  S
C42         C825   1.483       .  S
C44         C852   1.474       .  S
C45          O46   1.280       .  A
C45         C816   1.481       .  S
O47          C63   1.276       .  A
O47         Zn53   2.019       .  S
C48          O64   1.277       .  A
C48          O61   1.268       .  A
C48         C756   1.488       .  S
O49          C62   1.281       .  A
O49         Cd56   2.117       .  S
O50          C68   1.269       .  A
O50         Cd59   2.026       .  S
O51          C65   1.277       .  A
O51         Cd55   2.086       .  S
O52          C63   1.275       .  A
O52         Cd55   2.071   1_556  S
Zn53         O64   2.045   1_556  S
Zn53         O66   2.019       .  S
Zn53         O58   1.952   1_556  S
O54          C65   1.269       .  A
O54         Cd59   2.050       .  S
Cd55         O57   2.061   1_554  S
Cd55         O58   1.996       .  S
Cd56         O60   2.099       .  S
Cd56         O69   2.116   1_556  S
Cd56         O58   2.026   1_556  S
O57          C67   1.275       .  A
O58         Cd59   1.975       .  S
Cd59         O61   2.021       .  S
O60          C67   1.280       .  A
C62          O66   1.275       .  A
C62         C777   1.494       .  S
C63         C729   1.485       .  S
C65         C744   1.489       .  S
C67         C792   1.482       .  S
C68          O69   1.280       .  A
C68         C765   1.481       .  S
O70          C86   1.275       .  A
O70         Zn76   2.042       .  S
C71          O87   1.275       .  A
C71          O84   1.275       .  A
C71         C693   1.487       .  S
O72          C85   1.278       .  A
O72         Cd79   2.098       .  S
O73          C91   1.274       .  A
O73         Cd82   2.065       .  S
O74          C88   1.274       .  A
O74         Cd78   2.068   1_565  S
O75          C86   1.274       .  A
O75         Cd78   2.061       .  S
Zn76         O87   2.018   1_545  S
Zn76         O89   1.993       .  S
Zn76         O81   1.943       .  S
O77          C88   1.274       .  A
O77         Cd82   2.061       .  S
Cd78         O80   2.058       .  S
Cd78         O81   1.992       .  S
Cd79         O83   2.112       .  S
Cd79         O92   2.111       .  S
Cd79         O81   2.027       .  S
O80          C90   1.274       .  A
O81         Cd82   2.001   1_545  S
Cd82         O84   2.078       .  S
O83          C90   1.281       .  A
C85          O89   1.273       .  A
C85         C681   1.478       .  S
C86         C708   1.489       .  S
C88         C717   1.479       .  S
C90         C657   1.492       .  S
C91          O92   1.280   1_565  A
C91         C669   1.485       .  S
O93         C109   1.277       .  A
O93         Zn99   2.028       .  S
C94         O110   1.276       .  A
C94         O107   1.273       .  A
C94         C636   1.489       .  S
O95         C108   1.279       .  A
O95        Cd102   2.110       .  S
O96         C114   1.273       .  A
O96        Cd105   2.052       .  S
O97         C111   1.275       .  A
O97        Cd101   2.070   1_556  S
O98         C109   1.275       .  A
O98        Cd101   2.085       .  S
Zn99        O110   2.044   1_454  S
Zn99        O112   1.991   1_455  S
Zn99        O104   1.937       .  S
O100        C111   1.274       .  A
O100       Cd105   2.068   1_455  S
Cd101       O103   2.056       .  S
Cd101       O104   2.001       .  S
Cd102       O106   2.100   1_655  S
Cd102       O115   2.109       .  S
Cd102       O104   2.034   1_655  S
O103        C113   1.274       .  A
O104       Cd105   1.993   1_454  S
Cd105       O107   2.062       .  S
O106        C113   1.278       .  A
C108        O112   1.272       .  A
C108        C621   1.487       .  S
C109        C585   1.497       .  S
C111        C609   1.486       .  S
C113        C600   1.480       .  S
C114        O115   1.280   1_556  A
C114        C648   1.482       .  S
O116        C132   1.273       .  A
O116       Zn122   2.021   1_455  S
C117        O133   1.270       .  A
C117        O130   1.275       .  A
C117        C576   1.482       .  S
O118        C131   1.281       .  A
O118       Cd125   2.116       .  S
O119        C137   1.276       .  A
O119       Cd128   2.060   1_655  S
O120        C134   1.271       .  A
O120       Cd124   2.058   1_565  S
O121        C132   1.272       .  A
O121       Cd124   2.044       .  S
Zn122       O133   1.981   1_545  S
Zn122       O135   1.998       .  S
Zn122       O127   1.939   1_655  S
O123        C134   1.276       .  A
O123       Cd128   2.083       .  S
Cd124       O126   2.034       .  S
Cd124       O127   1.983       .  S
Cd125       O129   2.125   1_655  S
Cd125       O138   2.116       .  S
Cd125       O127   2.028   1_655  S
O126        C136   1.271       .  A
O127       Cd128   1.997   1_545  S
Cd128       O130   2.075   1_455  S
O129        C136   1.283       .  A
C131        O135   1.272       .  A
C131        C552   1.484       .  S
C132        C525   1.483       .  S
C134        C561   1.486       .  S
C136        C513   1.489       .  S
C137        O138   1.281   1_565  A
C137        C537   1.489       .  S
O139        C155   1.275       .  A
O139       Zn145   2.030   1_565  S
C140        O156   1.272       .  A
C140        O153   1.275       .  A
C140        C489   1.489       .  S
O141        C154   1.280   1_554  A
O141       Cd148   2.106       .  S
O142        C160   1.273       .  A
O142       Cd151   2.048       .  S
O143        C157   1.273       .  A
O143       Cd147   2.059   1_545  S
O144        C155   1.271       .  A
O144       Cd147   2.045   1_556  S
Zn145       O156   2.006       .  S
Zn145       O158   1.984   1_545  S
Zn145       O150   1.936   1_556  S
O146        C157   1.274       .  A
O146       Cd151   2.059       .  S
Cd147       O149   2.050       .  S
Cd147       O150   1.983   1_565  S
Cd148       O152   2.118       .  S
Cd148       O161   2.106   1_565  S
Cd148       O150   2.027   1_565  S
O149        C159   1.271       .  A
O150       Cd151   1.996       .  S
Cd151       O153   2.078   1_554  S
O152        C159   1.280       .  A
C154        O158   1.271       .  A
C154        C477   1.478       .  S
C155        C504   1.487       .  S
C157        C456   1.481       .  S
C159        C465   1.483       .  S
C160        O161   1.280       .  A
C160        C441   1.482       .  S
O162        C178   1.274       .  A
O162       Zn168   2.025   1_465  S
C163        O179   1.272       .  A
C163        O176   1.275       .  A
C163        C369   1.487       .  S
O164        C177   1.279       .  A
O164       Cd171   2.110   1_554  S
O165        C183   1.274       .  A
O165       Cd174   2.054   1_655  S
O166        C180   1.275       .  A
O166       Cd170   2.080   1_546  S
O167        C178   1.274       .  A
O167       Cd170   2.063       .  S
Zn168       O179   1.998       .  S
Zn168       O181   1.997   1_545  S
Zn168       O173   1.934   1_655  S
O169        C180   1.274       .  A
O169       Cd174   2.067       .  S
Cd170       O172   2.058   1_554  S
Cd170       O173   1.997   1_565  S
Cd171       O175   2.095   1_655  S
Cd171       O184   2.101   1_565  S
Cd171       O173   2.029   1_666  S
O172        C182   1.275       .  A
O173       Cd174   1.994   1_554  S
Cd174       O176   2.075   1_456  S
O175        C182   1.278       .  A
C177        O181   1.272       .  A
C177        C429   1.488       .  S
C178        C381   1.483       .  S
C180        C393   1.490       .  S
C182        C405   1.478       .  S
C183        O184   1.278       .  A
C183        C417   1.485       .  S
O185        C201   1.274       .  A
O185       Zn191   2.046       .  S
C186        O202   1.272       .  A
C186        O199   1.275       .  A
C186        C912   1.498       .  S
O187        C200   1.277       .  A
O187       Cd194   2.089       .  S
O188        C206   1.275       .  A
O188       Cd197   2.074       .  S
O189        C203   1.274       .  A
O189       Cd193   2.053       .  S
O190        C201   1.273       .  A
O190       Cd193   2.059       .  S
Zn191       O202   2.002       .  S
Zn191       O204   1.972       .  S
Zn191       O196   1.930       .  S
O192        C203   1.275       .  A
O192       Cd197   2.061       .  S
Cd193       O195   2.062       .  S
Cd193       O196   1.986       .  S
Cd194       O198   2.105       .  S
Cd194       O207   2.103       .  S
Cd194       O196   2.024       .  S
O195        C205   1.273       .  A
O196       Cd197   2.007       .  S
Cd197       O199   2.090       .  S
O198        C205   1.279       .  A
C200        O204   1.272       .  A
C200        C753   1.476       .  S
C201        C624   1.496       .  S
C203        C573   1.468       .  S
C205        C432   1.480       .  S
C206        O207   1.279       .  A
C206        C672   1.487       .  S
O208        C224   1.275       .  A
O208       Zn214   2.015       .  S
C209        O225   1.276       .  A
C209        O222   1.276       .  A
C209        C684   1.490       .  S
O210        C223   1.278       .  A
O210       Cd217   2.104       .  S
O211        C229   1.275       .  A
O211       Cd220   2.057       .  S
O212        C226   1.272       .  A
O212       Cd216   2.051       .  S
O213        C224   1.272       .  A
O213       Cd216   2.055       .  S
Zn214       O225   2.034       .  S
Zn214       O227   2.020       .  S
Zn214       O219   1.947       .  S
O215        C226   1.276       .  A
O215       Cd220   2.096       .  S
Cd216       O218   2.052       .  S
Cd216       O219   1.988       .  S
Cd217       O221   2.102       .  S
Cd217       O230   2.089       .  S
Cd217       O219   2.022       .  S
O218        C228   1.272       .  A
O219       Cd220   1.999       .  S
Cd220       O222   2.066       .  S
O221        C228   1.279       .  A
C223        O227   1.274       .  A
C223        C888   1.485       .  S
C224        C837   1.479       .  S
C226        C420   1.494       .  S
C228        C645   1.480       .  S
C229        O230   1.278       .  A
C229        C492   1.480       .  S
O231        C247   1.274       .  A
O231       Zn237   2.016       .  S
C232        O248   1.273       .  A
C232        O245   1.273       .  A
C232        C732   1.487       .  S
O233        C246   1.278       .  A
O233       Cd240   2.094       .  S
O234        C252   1.272       .  A
O234       Cd243   2.052       .  S
O235        C249   1.273       .  A
O235       Cd239   2.057       .  S
O236        C247   1.274       .  A
O236       Cd239   2.078       .  S
Zn237       O248   2.023       .  S
Zn237       O250   1.986       .  S
Zn237       O242   1.933       .  S
O238        C249   1.274       .  A
O238       Cd243   2.061       .  S
Cd239       O241   2.053       .  S
Cd239       O242   1.994       .  S
Cd240       O244   2.105       .  S
Cd240       O253   2.102       .  S
Cd240       O242   2.028       .  S
O241        C251   1.273       .  A
O242       Cd243   1.990       .  S
Cd243       O245   2.060       .  S
O244        C251   1.279       .  A
C246        O250   1.272       .  A
C246        C501   1.476       .  S
C247        C408   1.488       .  S
C249        C828   1.474       .  S
C251        C564   1.479       .  S
C252        O253   1.278       .  A
C252        C924   1.480       .  S
O254        C270   1.277       .  A
O254       Zn260   2.034       .  S
C255        O271   1.277       .  A
C255        O268   1.273       .  A
C255        C897   1.486       .  S
O256        C269   1.277       .  A
O256       Cd263   2.097       .  S
O257        C275   1.273       .  A
O257       Cd266   2.059       .  S
O258        C272   1.275       .  A
O258       Cd262   2.071       .  S
O259        C270   1.275       .  A
O259       Cd262   2.083       .  S
Zn260       O271   2.044       .  S
Zn260       O273   2.003       .  S
Zn260       O265   1.940       .  S
O261        C272   1.273       .  A
O261       Cd266   2.065       .  S
Cd262       O264   2.053       .  S
Cd262       O265   1.999       .  S
Cd263       O267   2.098       .  S
Cd263       O276   2.096       .  S
Cd263       O265   2.028       .  S
O264        C274   1.273       .  A
O265       Cd266   1.991       .  S
Cd266       O268   2.055       .  S
O267        C274   1.278       .  A
C269        O273   1.274       .  A
C269        C705   1.477       .  S
C270        C516   1.497       .  S
C272        C612   1.485       .  S
C274        C396   1.479       .  S
C275        O276   1.278       .  A
C275        C789   1.480       .  S
O277        C293   1.277       .  A
O277       Zn283   2.041       .  S
C278        O294   1.275       .  A
C278        O291   1.272       .  A
C278        C720   1.480       .  S
O279        C292   1.281       .  A
O279       Cd286   2.116       .  S
O280        C298   1.272       .  A
O280       Cd289   2.044       .  S
O281        C295   1.272       .  A
O281       Cd285   2.067       .  S
O282        C293   1.272       .  A
O282       Cd285   2.052       .  S
Zn283       O294   2.023       .  S
Zn283       O296   2.018       .  S
Zn283       O288   1.950       .  S
O284        C295   1.274       .  A
O284       Cd289   2.067       .  S
Cd285       O287   2.038       .  S
Cd285       O288   1.990       .  S
Cd286       O290   2.126       .  S
Cd286       O299   2.123       .  S
Cd286       O288   2.033       .  S
O287        C297   1.272       .  A
O288       Cd289   1.990       .  S
Cd289       O291   2.056       .  S
O290        C297   1.282       .  A
C292        O296   1.275       .  A
C292        C468   1.489       .  S
C293        C384   1.486       .  S
C295        C849   1.484       .  S
C297        C588   1.488       .  S
C298        O299   1.281       .  A
C298        C873   1.485       .  S
O300        C316   1.274       .  A
O300       Zn306   2.029       .  S
C301        O317   1.275       .  A
C301        O314   1.273       .  A
C301        C768   1.494       .  S
O302        C315   1.279       .  A
O302       Cd309   2.110       .  S
O303        C321   1.273       .  A
O303       Cd312   2.056       .  S
O304        C318   1.275       .  A
O304       Cd308   2.066       .  S
O305        C316   1.274       .  A
O305       Cd308   2.063       .  S
Zn306       O317   2.014       .  S
Zn306       O319   1.981       .  S
Zn306       O311   1.933       .  S
O307        C318   1.274       .  A
O307       Cd312   2.066       .  S
Cd308       O310   2.055       .  S
Cd308       O311   1.986       .  S
Cd309       O313   2.108       .  S
Cd309       O322   2.099       .  S
Cd309       O311   2.031       .  S
O310        C320   1.273       .  A
O311       Cd312   2.000       .  S
Cd312       O314   2.076       .  S
O313        C320   1.280       .  A
C315        O319   1.271       .  A
C315        C933   1.486       .  S
C316        C861   1.489       .  S
C318        C372   1.477       .  S
C320        C549   1.483       .  S
C321        O322   1.278       .  A
C321        C444   1.475       .  S
O323        C339   1.273       .  A
O323       Zn329   2.010       .  S
C324        O340   1.273       .  A
C324        O337   1.272       .  A
C324        C453   1.480       .  S
O325        C338   1.279       .  A
O325       Cd332   2.107       .  S
O326        C344   1.272       .  A
O326       Cd335   2.037       .  S
O327        C341   1.275       .  A
O327       Cd331   2.083       .  S
O328        C339   1.274       .  A
O328       Cd331   2.055       .  S
Zn329       O340   2.006       .  S
Zn329       O342   2.008       .  S
Zn329       O334   1.937       .  S
O330        C341   1.273       .  A
O330       Cd335   2.059       .  S
Cd331       O333   2.056       .  S
Cd331       O334   1.994       .  S
Cd332       O336   2.091       .  S
Cd332       O345   2.098       .  S
Cd332       O334   2.024       .  S
O333        C343   1.275       .  A
O334       Cd335   1.985       .  S
Cd335       O337   2.062       .  S
O336        C343   1.277       .  A
C338        O342   1.272       .  A
C338        C660   1.481       .  S
C339        C528   1.476       .  S
C341        C597   1.488       .  S
C343        C804   1.482       .  S
C344        O345   1.279       .  A
C344        C741   1.476       .  S
O346        C362   1.274       .  A
O346       Zn352   2.023       .  S
C347        O363   1.275       .  A
C347        O360   1.276       .  A
C347        C480   1.489       .  S
O348        C361   1.281       .  A
O348       Cd355   2.122       .  S
O349        C367   1.273       .  A
O349       Cd358   2.051       .  S
O350        C364   1.274       .  A
O350       Cd354   2.065       .  S
O351        C362   1.276       .  A
O351       Cd354   2.080       .  S
Zn352       O363   2.022       .  S
Zn352       O365   2.017       .  S
Zn352       O357   1.948       .  S
O353        C364   1.277       .  A
O353       Cd358   2.101       .  S
Cd354       O356   2.049       .  S
Cd354       O357   1.990       .  S
Cd355       O359   2.111       .  S
Cd355       O368   2.104       .  S
Cd355       O357   2.031       .  S
O356        C366   1.272       .  A
O357       Cd358   2.005       .  S
Cd358       O360   2.070       .  S
O359        C366   1.280       .  A
C361        O365   1.273       .  A
C361        C780   1.488       .  S
C362        C633   1.491       .  S
C364        C540   1.501       .  S
C366        C813   1.480       .  S
C367        O368   1.279       .  A
C367        C696   1.478       .  S
C369        C370   1.408       .  A
C369        C374   1.418       .  A
C370        C371   1.403       .  A
C370        H375   1.084       .  S
C371        C372   1.411       .  A
C371        C378   1.444       .  S
C372        C373   1.401       .  A
C373        C374   1.396       .  A
C373        H376   1.085       .  S
C374        C377   1.445       .  S
C377        N379   1.157       .  T
C378        N380   1.157       .  T
C381        C382   1.404       .  A
C381        C386   1.413       .  A
C382        C383   1.400       .  A
C382        H387   1.085       .  S
C383        C384   1.416       .  A
C383        C390   1.445       .  S
C384        C385   1.405       .  A
C385        C386   1.401       .  A
C385        H388   1.085       .  S
C386        C389   1.444       .  S
C389        N391   1.157   1_565  T
C390        N392   1.157       .  T
C393        C394   1.409       .  A
C393        C398   1.415       .  A
C394        C395   1.405       .  A
C394        H399   1.084       .  S
C395        C396   1.410       .  A
C395        C402   1.444       .  S
C396        C397   1.403       .  A
C397        C398   1.399       .  A
C397        H400   1.085       .  S
C398        C401   1.445       .  S
C401        N403   1.157       .  T
C402        N404   1.157       .  T
C405        C406   1.403       .  A
C405        C410   1.411       .  A
C406        C407   1.399       .  A
C406        H411   1.085       .  S
C407        C408   1.414       .  A
C407        C414   1.445       .  S
C408        C409   1.408       .  A
C409        C410   1.404       .  A
C409        H412   1.084       .  S
C410        C413   1.444       .  S
C413        N415   1.157       .  T
C414        N416   1.157       .  T
C417        C418   1.403       .  A
C417        C422   1.412       .  A
C418        C419   1.397       .  A
C418        H423   1.085       .  S
C419        C420   1.418       .  A
C419        C426   1.446       .  S
C420        C421   1.410       .  A
C421        C422   1.408       .  A
C421        H424   1.084       .  S
C422        C425   1.443       .  S
C425        N427   1.157   1_545  T
C426        N428   1.158       .  T
C429        C430   1.408       .  A
C429        C434   1.413       .  A
C430        C431   1.401       .  A
C430        H435   1.085       .  S
C431        C432   1.408       .  A
C431        C438   1.445       .  S
C432        C433   1.407       .  A
C433        C434   1.407       .  A
C433        H436   1.084       .  S
C434        C437   1.444       .  S
C437        N439   1.157   1_554  T
C438        N440   1.157       .  T
C441        C442   1.403       .  A
C441        C446   1.416       .  A
C442        C443   1.404       .  A
C442        H447   1.084       .  S
C443        C444   1.412       .  A
C443        C450   1.444       .  S
C444        C445   1.400       .  A
C445        C446   1.400       .  A
C445        H448   1.084       .  S
C446        C449   1.446       .  S
C449        N451   1.157       .  T
C450        N452   1.157       .  T
C453        C454   1.404       .  A
C453        C458   1.414       .  A
C454        C455   1.397       .  A
C454        H459   1.085       .  S
C455        C456   1.415       .  A
C455        C462   1.445       .  S
C456        C457   1.405       .  A
C457        C458   1.400       .  A
C457        H460   1.084       .  S
C458        C461   1.445       .  S
C461        N463   1.157       .  T
C462        N464   1.157       .  T
C465        C466   1.402       .  A
C465        C470   1.414       .  A
C466        C467   1.405       .  A
C466        H471   1.084       .  S
C467        C468   1.416       .  A
C467        C474   1.444       .  S
C468        C469   1.404       .  A
C469        C470   1.406       .  A
C469        H472   1.084       .  S
C470        C473   1.444       .  S
C473        N475   1.157       .  T
C474        N476   1.157       .  T
C477        C478   1.400       .  A
C477        C482   1.413       .  A
C478        C479   1.403       .  A
C478        H483   1.085       .  S
C479        C480   1.419       .  A
C479        C486   1.444       .  S
C480        C481   1.406       .  A
C481        C482   1.399       .  A
C481        H484   1.084       .  S
C482        C485   1.446       .  S
C485        N487   1.158   1_565  T
C486        N488   1.157       .  T
C489        C490   1.409       .  A
C489        C494   1.417       .  A
C490        C491   1.404       .  A
C490        H495   1.084       .  S
C491        C492   1.411       .  A
C491        C498   1.444       .  S
C492        C493   1.402       .  A
C493        C494   1.398       .  A
C493        H496   1.085       .  S
C494        C497   1.445       .  S
C497        N499   1.157       .  T
C498        N500   1.157       .  T
C501        C502   1.402       .  A
C501        C506   1.410       .  A
C502        C503   1.396       .  A
C502        H507   1.085       .  S
C503        C504   1.417       .  A
C503        C510   1.446       .  S
C504        C505   1.409       .  A
C505        C506   1.404       .  A
C505        H508   1.084       .  S
C506        C509   1.444       .  S
C509        N511   1.157       .  T
C510        N512   1.158       .  T
C513        C514   1.404       .  A
C513        C518   1.416       .  A
C514        C515   1.409       .  A
C514        H519   1.084       .  S
C515        C516   1.421       .  A
C515        C522   1.444       .  S
C516        C517   1.405       .  A
C517        C518   1.399       .  A
C517        H520   1.085       .  S
C518        C521   1.446       .  S
C521        N523   1.158       .  T
C522        N524   1.157       .  T
C525        C526   1.406       .  A
C525        C530   1.415       .  A
C526        C527   1.396       .  A
C526        H531   1.085       .  S
C527        C528   1.412       .  A
C527        C534   1.446       .  S
C528        C529   1.404       .  A
C529        C530   1.400       .  A
C529        H532   1.085       .  S
C530        C533   1.444       .  S
C533        N535   1.158       .  T
C534        N536   1.158       .  T
C537        C538   1.402       .  A
C537        C542   1.413       .  A
C538        C539   1.399       .  A
C538        H543   1.085       .  S
C539        C540   1.418       .  A
C539        C546   1.445       .  S
C540        C541   1.412       .  A
C541        C542   1.411       .  A
C541        H544   1.084       .  S
C542        C545   1.444       .  S
C545        N547   1.158   1_565  T
C546        N548   1.157       .  T
C549        C550   1.403       .  A
C549        C554   1.414       .  A
C550        C551   1.406       .  A
C550        H555   1.084       .  S
C551        C552   1.416       .  A
C551        C558   1.445       .  S
C552        C553   1.402       .  A
C553        C554   1.403       .  A
C553        H556   1.083       .  S
C554        C557   1.444       .  S
C557        N559   1.157       .  T
C558        N560   1.157   1_545  T
C561        C562   1.403       .  A
C561        C566   1.420       .  A
C562        C563   1.399       .  A
C562        H567   1.084       .  S
C563        C564   1.411       .  A
C563        C570   1.445       .  S
C564        C565   1.402       .  A
C565        C566   1.405       .  A
C565        H568   1.085       .  S
C566        C569   1.445       .  S
C569        N571   1.158   1_565  T
C570        N572   1.157       .  T
C573        C574   1.399       .  A
C573        C578   1.408       .  A
C574        C575   1.394       .  A
C574        H579   1.085       .  S
C575        C576   1.419       .  A
C575        C582   1.446       .  S
C576        C577   1.407       .  A
C577        C578   1.399       .  A
C577        H580   1.084       .  S
C578        C581   1.444       .  S
C581        N583   1.157       .  T
C582        N584   1.158       .  T
C585        C586   1.405       .  A
C585        C590   1.421       .  A
C586        C587   1.398       .  A
C586        H591   1.085       .  S
C587        C588   1.415       .  A
C587        C594   1.446       .  S
C588        C589   1.404       .  A
C589        C590   1.410       .  A
C589        H592   1.085       .  S
C590        C593   1.443       .  S
C593        N595   1.157       .  T
C594        N596   1.157       .  T
C597        C598   1.408       .  A
C597        C602   1.415       .  A
C598        C599   1.404       .  A
C598        H603   1.084       .  S
C599        C600   1.411       .  A
C599        C606   1.444       .  S
C600        C601   1.403       .  A
C601        C602   1.400       .  A
C601        H604   1.085       .  S
C602        C605   1.445       .  S
C605        N607   1.158       .  T
C606        N608   1.157       .  T
C609        C610   1.405       .  A
C609        C614   1.416       .  A
C610        C611   1.400       .  A
C610        H615   1.085       .  S
C611        C612   1.416       .  A
C611        C618   1.445       .  S
C612        C613   1.404       .  A
C613        C614   1.401       .  A
C613        H616   1.085       .  S
C614        C617   1.445       .  S
C617        N619   1.157       .  T
C618        N620   1.157       .  T
C621        C622   1.405       .  A
C621        C626   1.414       .  A
C622        C623   1.410       .  A
C622        H627   1.084       .  S
C623        C624   1.420       .  A
C623        C630   1.443       .  S
C624        C625   1.406       .  A
C625        C626   1.396       .  A
C625        H628   1.084       .  S
C626        C629   1.446       .  S
C629        N631   1.157   1_655  T
C630        N632   1.158       .  T
C633        C634   1.404       .  A
C633        C638   1.417       .  A
C634        C635   1.400       .  A
C634        H639   1.097       .  S
C635        C636   1.415       .  A
C635        C642   1.444       .  S
C636        C637   1.405       .  A
C637        C638   1.404       .  A
C637        H640   1.088       .  S
C638        C641   1.445       .  S
C641        N643   1.158       .  T
C642        N644   1.157   1_655  T
C645        C646   1.407       .  A
C645        C650   1.409       .  A
C646        C647   1.405       .  A
C646        H651   1.084       .  S
C647        C648   1.411       .  A
C647        C654   1.444       .  S
C648        C649   1.406       .  A
C649        C650   1.402       .  A
C649        H652   1.084       .  S
C650        C653   1.444       .  S
C653        N655   1.157       .  T
C654        N656   1.157       .  T
C657        C658   1.409       .  A
C657        C662   1.414       .  A
C658        C659   1.403       .  A
C658        H663   1.084       .  S
C659        C660   1.408       .  A
C659        C666   1.445       .  S
C660        C661   1.405       .  A
C661        C662   1.407       .  A
C661        H664   1.084       .  S
C662        C665   1.443       .  S
C665        N667   1.157       .  T
C666        N668   1.157       .  T
C669        C670   1.406       .  A
C669        C674   1.411       .  A
C670        C671   1.405       .  A
C670        H675   1.085       .  S
C671        C672   1.413       .  A
C671        C678   1.444       .  S
C672        C673   1.406       .  A
C673        C674   1.405       .  A
C673        H676   1.085       .  S
C674        C677   1.444       .  S
C677        N679   1.157   1_565  T
C678        N680   1.157       .  T
C681        C682   1.402       .  A
C681        C686   1.411       .  A
C682        C683   1.405       .  A
C682        H687   1.085       .  S
C683        C684   1.419       .  A
C683        C690   1.444       .  S
C684        C685   1.406       .  A
C685        C686   1.398       .  A
C685        H688   1.085       .  S
C686        C689   1.446       .  S
C689        N691   1.157   1_545  T
C690        N692   1.157       .  T
C693        C694   1.408       .  A
C693        C698   1.414       .  A
C694        C695   1.405       .  A
C694        H699   1.085       .  S
C695        C696   1.411       .  A
C695        C702   1.444       .  S
C696        C697   1.403       .  A
C697        C698   1.399       .  A
C697        H700   1.085       .  S
C698        C701   1.445       .  S
C701        N703   1.157       .  T
C702        N704   1.157       .  T
C705        C706   1.401       .  A
C705        C710   1.411       .  A
C706        C707   1.397       .  A
C706        H711   1.086       .  S
C707        C708   1.415       .  A
C707        C714   1.445       .  S
C708        C709   1.410       .  A
C709        C710   1.408       .  A
C709        H712   1.085       .  S
C710        C713   1.444       .  S
C713        N715   1.157       .  T
C714        N716   1.157       .  T
C717        C718   1.405       .  A
C717        C722   1.412       .  A
C718        C719   1.400       .  A
C718        H723   1.085       .  S
C719        C720   1.412       .  A
C719        C726   1.444       .  S
C720        C721   1.406       .  A
C721        C722   1.399       .  A
C721        H724   1.085       .  S
C722        C725   1.445       .  S
C725        N727   1.157       .  T
C726        N728   1.157       .  T
C729        C730   1.405       .  A
C729        C734   1.415       .  A
C730        C731   1.402       .  A
C730        H735   1.085       .  S
C731        C732   1.416       .  A
C731        C738   1.445       .  S
C732        C733   1.405       .  A
C733        C734   1.400       .  A
C733        H736   1.085       .  S
C734        C737   1.445       .  S
C737        N739   1.157       .  T
C738        N740   1.157       .  T
C741        C742   1.399       .  A
C741        C746   1.412       .  A
C742        C743   1.403       .  A
C742        H747   1.084       .  S
C743        C744   1.422       .  A
C743        C750   1.445       .  S
C744        C745   1.404       .  A
C745        C746   1.398       .  A
C745        H748   1.084       .  S
C746        C749   1.445       .  S
C749        N751   1.157       .  T
C750        N752   1.158       .  T
C753        C754   1.401       .  A
C753        C758   1.410       .  A
C754        C755   1.391       .  A
C754        H759   1.086       .  S
C755        C756   1.420       .  A
C755        C762   1.447       .  S
C756        C757   1.410       .  A
C757        C758   1.405       .  A
C757        H760   1.084       .  S
C758        C761   1.443       .  S
C761        N763   1.157       .  T
C762        N764   1.158       .  T
C765        C766   1.402       .  A
C765        C770   1.414       .  A
C766        C767   1.407       .  A
C766        H771   1.085       .  S
C767        C768   1.421       .  A
C767        C774   1.444       .  S
C768        C769   1.405       .  A
C769        C770   1.396       .  A
C769        H772   1.085       .  S
C770        C773   1.447       .  S
C773        N775   1.157       .  T
C774        N776   1.157       .  T
C777        C778   1.409       .  A
C777        C782   1.413       .  A
C778        C779   1.406       .  A
C778        H783   1.085       .  S
C779        C780   1.410       .  A
C779        C786   1.444       .  S
C780        C781   1.407       .  A
C781        C782   1.409       .  A
C781        H784   1.084       .  S
C782        C785   1.444       .  S
C785        N787   1.157       .  T
C786        N788   1.157       .  T
C789        C790   1.405       .  A
C789        C794   1.411       .  A
C790        C791   1.403       .  A
C790        H795   1.085       .  S
C791        C792   1.411       .  A
C791        C798   1.444       .  S
C792        C793   1.406       .  A
C793        C794   1.403       .  A
C793        H796   1.085       .  S
C794        C797   1.444       .  S
C797        N799   1.157       .  T
C798        N800   1.157       .  T
C801        C802   1.409       .  A
C801        C806   1.418       .  A
C802        C803   1.405       .  A
C802        H807   1.085       .  S
C803        C804   1.412       .  A
C803        C810   1.444       .  S
C804        C805   1.402       .  A
C805        C806   1.397       .  A
C805        H808   1.085       .  S
C806        C809   1.445       .  S
C809        N811   1.158       .  T
C810        N812   1.157       .  T
C813        C814   1.400       .  A
C813        C818   1.415       .  A
C814        C815   1.402       .  A
C814        H819   1.085       .  S
C815        C816   1.415       .  A
C815        C822   1.444       .  S
C816        C817   1.402       .  A
C817        C818   1.405       .  A
C817        H820   1.084       .  S
C818        C821   1.445       .  S
C821        N823   1.158       .  T
C822        N824   1.157       .  T
C825        C826   1.407       .  A
C825        C830   1.416       .  A
C826        C827   1.399       .  A
C826        H831   1.084       .  S
C827        C828   1.410       .  A
C827        C834   1.445       .  S
C828        C829   1.402       .  A
C829        C830   1.398       .  A
C829        H832   1.085       .  S
C830        C833   1.445       .  S
C833        N835   1.157       .  T
C834        N836   1.157       .  T
C837        C838   1.403       .  A
C837        C842   1.414       .  A
C838        C839   1.400       .  A
C838        H843   1.085       .  S
C839        C840   1.416       .  A
C839        C846   1.445       .  S
C840        C841   1.405       .  A
C841        C842   1.398       .  A
C841        H844   1.085       .  S
C842        C845   1.445       .  S
C845        N847   1.157       .  T
C846        N848   1.157       .  T
C849        C850   1.404       .  A
C849        C854   1.418       .  A
C850        C851   1.397       .  A
C850        H855   1.086       .  S
C851        C852   1.409       .  A
C851        C858   1.445       .  S
C852        C853   1.402       .  A
C853        C854   1.405       .  A
C853        H856   1.086       .  S
C854        C857   1.445       .  S
C857        N859   1.158       .  T
C858        N860   1.157       .  T
C861        C862   1.410       .  A
C861        C866   1.415       .  A
C862        C863   1.405       .  A
C862        H867   1.084       .  S
C863        C864   1.410       .  A
C863        C870   1.443       .  S
C864        C865   1.404       .  A
C865        C866   1.397       .  A
C865        H868   1.085       .  S
C866        C869   1.445       .  S
C869        N871   1.157       .  T
C870        N872   1.157       .  T
C873        C874   1.404       .  A
C873        C878   1.414       .  A
C874        C875   1.409       .  A
C874        H879   1.085       .  S
C875        C876   1.420       .  A
C875        C882   1.445       .  S
C876        C877   1.403       .  A
C877        C878   1.400       .  A
C877        H880   1.085       .  S
C878        C881   1.445       .  S
C881        N883   1.157       .  T
C882        N884   1.158       .  T
C885        C886   1.408       .  A
C885        C890   1.412       .  A
C886        C887   1.405       .  A
C886        H891   1.085       .  S
C887        C888   1.410       .  A
C887        C894   1.444       .  S
C888        C889   1.406       .  A
C889        C890   1.406       .  A
C889        H892   1.085       .  S
C890        C893   1.443       .  S
C893        N895   1.157       .  T
C894        N896   1.157       .  T
C897        C898   1.405       .  A
C897        C902   1.415       .  A
C898        C899   1.403       .  A
C898        H903   1.085       .  S
C899        C900   1.416       .  A
C899        C906   1.445       .  S
C900        C901   1.404       .  A
C901        C902   1.400       .  A
C901        H904   1.085       .  S
C902        C905   1.445       .  S
C905        N907   1.157       .  T
C906        N908   1.157       .  T
C909        C910   1.404       .  A
C909        C914   1.412       .  A
C910        C911   1.393       .  A
C910        H915   1.086       .  S
C911        C912   1.419       .  A
C911        C918   1.446       .  S
C912        C913   1.414       .  A
C913        C914   1.411       .  A
C913        H916   1.084       .  S
C914        C917   1.443       .  S
C917        N919   1.157       .  T
C918        N920   1.158       .  T
C921        C922   1.406       .  A
C921        C926   1.410       .  A
C922        C923   1.403       .  A
C922        H927   1.085       .  S
C923        C924   1.410       .  A
C923        C930   1.444       .  S
C924        C925   1.406       .  A
C925        C926   1.403       .  A
C925        H928   1.084       .  S
C926        C929   1.444       .  S
C929        N931   1.157       .  T
C930        N932   1.157       .  T
C933        C934   1.405       .  A
C933        C938   1.414       .  A
C934        C935   1.409       .  A
C934        H939   1.085       .  S
C935        C936   1.421       .  A
C935        C942   1.444       .  S
C936        C937   1.406       .  A
C937        C938   1.394       .  A
C937        H940   1.085       .  S
C938        C941   1.447       .  S
C941        N943   1.158       .  T
C942        N944   1.157       .  T
