geometry optimzed in LAMMPS
_audit_creation_date              2020-11-30 
_audit_creation_method            'lammps2cif' 
_symmetry_space_group_name_H-M    'P1' 
_symmetry_Int_Tables_number       1 
_symmetry_cell_setting            triclinic 
loop_ 
_symmetry_equiv_pos_as_xyz 
  x,y,z 
_cell_length_a                    88.15528345 
_cell_length_b                    46.48997166446591 
_cell_length_c                    68.2136719216944 
_cell_angle_alpha                 89.78913022866946 
_cell_angle_beta                  89.81546682217079 
_cell_angle_gamma                 89.95026564931072 
loop_ 
_atom_site_label 
_atom_site_type_symbol 
_atom_site_fract_x 
_atom_site_fract_y 
_atom_site_fract_z 
_atom_site_charge 
C1          C  0.78795675  0.15508482  0.57731445     0.03200
C2          C  0.78996365  0.12681818  0.57058832    -0.12900
C3          C  0.78013236  0.11505769  0.55662688     0.00700
C4          C  0.76824363  0.13195690  0.54925439    -0.11400
C5          C  0.76599160  0.16020375  0.55583868     0.03200
C6          C  0.77590505  0.17161482  0.56990661    -0.10900
H7          H  0.79890336  0.11358982  0.57672291     0.08800
H8          H  0.76090914  0.12327071  0.53802794     0.06400
H9          H  0.77421975  0.19335396  0.57513986     0.06200
C10         C  0.78303592  0.14089389  0.97195372     0.03200
C11         C  0.78310523  0.11217162  0.97828846    -0.12900
C12         C  0.77311486  0.10281744  0.99298550     0.00700
C13         C  0.76291244  0.12243951  0.00134573    -0.11400
C14         C  0.76277272  0.15141423  0.99533730     0.03200
C15         C  0.77305656  0.16058021  0.98078175    -0.10900
H16         H  0.79077673  0.09691225  0.97148542     0.08800
H17         H  0.75520592  0.11516676  0.01273395     0.06400
H18         H  0.77276735  0.18263262  0.97559635     0.06200
N19         N  0.88009416  0.20734282  0.74702320    -0.27200
N20         N  0.89296804  0.20639709  0.73713332    -0.35000
C21         C  0.88986650  0.20347155  0.71795677     0.01200
C22         C  0.87422105  0.20240433  0.71567470     0.07200
C23         C  0.86845011  0.20496523  0.73451788    -0.05900
H24         H  0.89843447  0.20167828  0.70665256     0.07900
H25         H  0.85669261  0.20429596  0.73903626     0.09100
Cu26       Cu  0.91393890  0.20649753  0.75075752     0.44200
Cu27       Cu  0.87890501  0.20969943  0.77711978     0.42000
Cu28       Cu  0.91309622  0.20281232  0.80487626     0.43900
N29         N  0.93293284  0.20229923  0.76838168    -0.34600
N30         N  0.93262313  0.20081479  0.78776790    -0.28800
C31         C  0.94683865  0.19696343  0.79435822    -0.04900
C32         C  0.95651546  0.19590414  0.77839779     0.07300
C33         C  0.94734434  0.19938524  0.76217373     0.01100
H34         H  0.94984624  0.19466665  0.80964713     0.08700
H35         H  0.95082142  0.19933636  0.74694868     0.07800
N36         N  0.89173258  0.20484161  0.81777523    -0.36000
N37         N  0.87929632  0.20793605  0.80726791    -0.28200
C38         C  0.86717735  0.20767498  0.81916613    -0.03400
C39         C  0.87207948  0.20408403  0.83830657     0.05200
C40         C  0.88780924  0.20242180  0.83681815     0.03300
H41         H  0.85564094  0.20920038  0.81396955     0.08400
H42         H  0.89582647  0.19900278  0.84855949     0.07200
C43         C  0.81633551  0.82767027  0.48451751     0.03200
C44         C  0.81553139  0.85587660  0.49178286    -0.12900
C45         C  0.80489270  0.86326414  0.50626712     0.00700
C46         C  0.79511985  0.84199408  0.51367397    -0.11400
C47         C  0.79562480  0.81380453  0.50645375     0.03200
C48         C  0.80632200  0.80674337  0.49197380    -0.10900
H49         H  0.82271819  0.87243612  0.48551409     0.08800
H50         H  0.78679186  0.84757030  0.52474251     0.06400
H51         H  0.80683256  0.78489320  0.48654907     0.06200
C52         C  0.79319828  0.81105989  0.06988842     0.03200
C53         C  0.79366364  0.83978610  0.06346626    -0.12900
C54         C  0.78283640  0.85056865  0.05027352     0.00700
C55         C  0.77156011  0.83193521  0.04324211    -0.11400
C56         C  0.77091508  0.80304826  0.04936718     0.03200
C57         C  0.78179567  0.79282428  0.06272907    -0.10900
H58         H  0.80240609  0.85390726  0.06898943     0.08800
H59         H  0.76312880  0.84000331  0.03311743     0.06400
H60         H  0.78130114  0.77071214  0.06773343     0.06200
N61         N  0.89113150  0.78162304  0.29768315    -0.27200
N62         N  0.90393388  0.77814666  0.30738946    -0.35000
C63         C  0.90106967  0.78041700  0.32670896     0.01200
C64         C  0.88565990  0.78553635  0.32927444     0.07200
C65         C  0.87979829  0.78618104  0.31044277    -0.05900
H66         H  0.90961232  0.77827318  0.33795510     0.07900
H67         H  0.86815932  0.78963221  0.30610637     0.09100
Cu68       Cu  0.92449888  0.77025888  0.29359641     0.44200
Cu69       Cu  0.88926051  0.77967593  0.26761613     0.42000
Cu70       Cu  0.92328079  0.76675169  0.24008723     0.43900
N71         N  0.94330984  0.76350561  0.27586617    -0.34600
N72         N  0.94289763  0.76245788  0.25649553    -0.28800
C73         C  0.95705836  0.75854726  0.24960331    -0.04900
C74         C  0.96681688  0.75703329  0.26539147     0.07300
C75         C  0.95773292  0.76021237  0.28179883     0.01100
H76         H  0.96001097  0.75713174  0.23423074     0.08700
H77         H  0.96133123  0.76045647  0.29694448     0.07800
N78         N  0.90219100  0.77203324  0.22726374    -0.36000
N79         N  0.88970238  0.77673951  0.23748187    -0.28200
C80         C  0.87795671  0.77964194  0.22515575    -0.03400
C81         C  0.88327938  0.77667911  0.20611941     0.05200
C82         C  0.89874091  0.77184307  0.20808521     0.03300
H83         H  0.86646801  0.78411133  0.22983037     0.08400
H84         H  0.90694724  0.76845230  0.19650901     0.07200
C85         C  0.65818565  0.66532427  0.56582907     0.03200
C86         C  0.67033775  0.68289373  0.55973086    -0.12900
C87         C  0.68060518  0.67335528  0.54536239     0.00700
C88         C  0.67878426  0.64595208  0.53725194    -0.11400
C89         C  0.66706809  0.62773693  0.54356064     0.03200
C90         C  0.65664819  0.63778182  0.55755792    -0.10900
H91         H  0.67194044  0.70386508  0.56626418     0.08800
H92         H  0.68680249  0.63850480  0.52631501     0.06400
H93         H  0.64747785  0.62388338  0.56226434     0.06200
C94         C  0.64117140  0.64340650  0.97256263     0.03200
C95         C  0.65236320  0.66196587  0.97986550    -0.12900
C96         C  0.66170808  0.65356786  0.99554587     0.00700
C97         C  0.65969963  0.62611457  0.00390315    -0.11400
C98         C  0.64873204  0.60711127  0.99656301     0.03200
C99         C  0.63948983  0.61594633  0.98093935    -0.10900
H100        H  0.65382550  0.68298920  0.97324054     0.08800
H101        H  0.66675458  0.61934908  0.01604925     0.06400
H102        H  0.63103936  0.60131852  0.97521769     0.06200
N103        N  0.56284711  0.71648676  0.79147795    -0.27200
N104        N  0.55051028  0.71001862  0.80158840    -0.35000
C105        C  0.55435081  0.70491017  0.82032346     0.01200
C106        C  0.56992419  0.70816496  0.82214663     0.07200
C107        C  0.57489153  0.71565789  0.80349676    -0.05900
H108        H  0.54637576  0.69846416  0.83157929     0.07900
H109        H  0.58647263  0.71883695  0.79869554     0.09100
Cu110      Cu  0.52928437  0.70559128  0.78908017     0.44200
Cu111      Cu  0.56297561  0.72227475  0.76140135     0.42000
Cu112      Cu  0.52778568  0.70736628  0.73594731     0.43900
N113        N  0.50949436  0.70081277  0.77317027    -0.34600
N114        N  0.50889300  0.70151801  0.75380491    -0.28800
C115        C  0.49440672  0.69795250  0.74816683    -0.04900
C116        C  0.48550728  0.69486950  0.76479065     0.07300
C117        C  0.49543751  0.69677237  0.78036639     0.01100
H118        H  0.49064652  0.69778889  0.73308681     0.08700
H119        H  0.49267503  0.69545196  0.79580715     0.07800
N120        N  0.54852648  0.71305573  0.72191916    -0.36000
N121        N  0.56118872  0.71951735  0.73124576    -0.28200
C122        C  0.57271052  0.72030491  0.71832800    -0.03400
C123        C  0.56711383  0.71372476  0.69996075     0.05200
C124        C  0.55171481  0.70925199  0.70279361     0.03300
H125        H  0.58445862  0.72357627  0.72227449     0.08400
H126        H  0.54350104  0.70286078  0.69189971     0.07200
C127        C  0.63576913  0.31590142  0.07667173     0.03200
C128        C  0.64698076  0.29707088  0.06957363    -0.12900
C129        C  0.65743869  0.30618911  0.05524807     0.00700
C130        C  0.65644624  0.33436005  0.04783600    -0.11400
C131        C  0.64518048  0.35337362  0.05452428     0.03200
C132        C  0.63496610  0.34400631  0.06904661    -0.10900
H133        H  0.64785403  0.27555195  0.07562119     0.08800
H134        H  0.66441710  0.34145376  0.03670942     0.06400
H135        H  0.62609141  0.35837402  0.07404649     0.06200
C136        C  0.64391216  0.33264319  0.47531035     0.03200
C137        C  0.65493127  0.31458168  0.48370193    -0.12900
C138        C  0.66515760  0.32529745  0.49762296     0.00700
C139        C  0.66393666  0.35404623  0.50352173    -0.11400
C140        C  0.65321167  0.37251861  0.49504230     0.03200
C141        C  0.64313555  0.36161447  0.48103404    -0.10900
H142        H  0.65599956  0.29258782  0.47867830     0.08800
H143        H  0.67149293  0.36218356  0.51469755     0.06400
H144        H  0.63490220  0.37578718  0.47425631     0.06200
N145        N  0.55350108  0.24227610  0.25465244    -0.27200
N146        N  0.54084607  0.24300315  0.24437716    -0.35000
C147        C  0.54428890  0.24882470  0.22551155     0.01200
C148        C  0.55991271  0.25211832  0.22390397     0.07200
C149        C  0.56530420  0.24767509  0.24274659    -0.05900
H150        H  0.53597195  0.25152794  0.21402899     0.07900
H151        H  0.57693235  0.24876315  0.24767112     0.09100
Cu152      Cu  0.51969399  0.23840364  0.25748673     0.44200
Cu153      Cu  0.55421674  0.23667029  0.28468698     0.42000
Cu154      Cu  0.51927451  0.23602503  0.31169984     0.43900
N155        N  0.50025169  0.23639072  0.27472546    -0.34600
N156        N  0.50006508  0.23577312  0.29413578    -0.28800
C157        C  0.48556897  0.23567072  0.30037075    -0.04900
C158        C  0.47622593  0.23627693  0.28414252     0.07300
C159        C  0.48589354  0.23664919  0.26815431     0.01100
H160        H  0.48211852  0.23548652  0.31560438     0.08700
H161        H  0.48275684  0.23752858  0.25284353     0.07800
N162        N  0.54039621  0.23685297  0.32508286    -0.36000
N163        N  0.55316231  0.23646629  0.31493177    -0.28200
C164        C  0.56492579  0.23868098  0.32724783    -0.03400
C165        C  0.55940415  0.24073456  0.34625955     0.05200
C166        C  0.54372133  0.23941311  0.34425471     0.03300
H167        H  0.57659139  0.24004508  0.32242880     0.08400
H168        H  0.53528166  0.24115278  0.35572399     0.07200
C169        C  0.13526903  0.12123007  0.57177205     0.03200
C170        C  0.14711508  0.14019834  0.56694365    -0.12900
C171        C  0.15839083  0.13226270  0.55341537     0.00700
C172        C  0.15773635  0.10502833  0.54464959    -0.11400
C173        C  0.14602014  0.08575066  0.54931789     0.03200
C174        C  0.13473503  0.09416143  0.56268132    -0.10900
H175        H  0.14776093  0.16097386  0.57401797     0.08800
H176        H  0.16655027  0.09857383  0.53446577     0.06400
H177        H  0.12571833  0.07927361  0.56637020     0.06200
C178        C  0.14674133  0.10333764  0.97172359     0.03200
C179        C  0.15764652  0.12251003  0.97906331    -0.12900
C180        C  0.16923362  0.11280986  0.99154483     0.00700
C181        C  0.16970575  0.08364318  0.99685808    -0.11400
C182        C  0.15884831  0.06417434  0.98980888     0.03200
C183        C  0.14739540  0.07422097  0.97725205    -0.10900
H184        H  0.15728021  0.14494707  0.97475001     0.08800
H185        H  0.17868502  0.07601847  0.00635635     0.06400
H186        H  0.13910178  0.05927563  0.97155195     0.06200
N187        N  0.04824541  0.16512573  0.81031100    -0.27200
N188        N  0.03549752  0.16725828  0.82037489    -0.35000
C189        C  0.03846541  0.16246408  0.83947296     0.01200
C190        C  0.05388919  0.15692824  0.84145298     0.07200
C191        C  0.05965032  0.15893515  0.82256136    -0.05900
H192        H  0.02996229  0.16255833  0.85093119     0.07900
H193        H  0.07126384  0.15604342  0.81784543     0.09100
Cu194      Cu  0.01498237  0.17570546  0.80671259     0.44200
Cu195      Cu  0.04963003  0.16929893  0.78028969     0.42000
Cu196      Cu  0.01608285  0.17950351  0.75210148     0.43900
N197        N  0.99641718  0.18315927  0.78874880    -0.34600
N198        N  0.99677026  0.18434476  0.76934315    -0.28800
C199        C  0.98264316  0.18915515  0.76270294    -0.04900
C200        C  0.97298731  0.19111950  0.77864029     0.07300
C201        C  0.98207471  0.18722539  0.79489192     0.01100
H202        H  0.97964874  0.19099320  0.74738130     0.08700
H203        H  0.97854473  0.18719468  0.81009579     0.07800
N204        N  0.03729882  0.17384024  0.73935770    -0.36000
N205        N  0.04958204  0.17030909  0.75010883    -0.28200
C206        C  0.06153905  0.16577040  0.73835014    -0.03400
C207        C  0.05665014  0.16631941  0.71908723     0.05200
C208        C  0.04116043  0.17168653  0.72027936     0.03300
H209        H  0.07291009  0.16184560  0.74361673     0.08400
H210        H  0.03319304  0.17287053  0.70827739     0.07200
C211        C  0.15254668  0.77363165  0.06030430     0.03200
C212        C  0.16463598  0.75500657  0.05567843    -0.12900
C213        C  0.17543210  0.76250204  0.04130626     0.00700
C214        C  0.17409653  0.78909855  0.03162166    -0.11400
C215        C  0.16209235  0.80788404  0.03595642     0.03200
C216        C  0.15127674  0.79982679  0.05007147    -0.10900
H217        H  0.16601813  0.73511524  0.06378350     0.08800
H218        H  0.18227860  0.79504954  0.02043964     0.06400
H219        H  0.14201169  0.81435860  0.05335577     0.06200
C220        C  0.15226565  0.79972390  0.46413181     0.03200
C221        C  0.16442400  0.78214598  0.47005333    -0.12900
C222        C  0.17508358  0.79206572  0.48372687     0.00700
C223        C  0.17350873  0.81984806  0.49146303    -0.11400
C224        C  0.16137323  0.83756436  0.48584887     0.03200
C225        C  0.15073395  0.82723353  0.47236962    -0.10900
H226        H  0.16591664  0.76110913  0.46354711     0.08800
H227        H  0.18161590  0.82754573  0.50213345     0.06400
H228        H  0.14139110  0.84094036  0.46798361     0.06200
N229        N  0.06049575  0.73752630  0.23405792    -0.27200
N230        N  0.04766349  0.74179453  0.22447862    -0.35000
C231        C  0.05072468  0.74464941  0.20524434     0.01200
C232        C  0.06623108  0.74192087  0.20250861     0.07200
C233        C  0.07203903  0.73728461  0.22111249    -0.05900
H234        H  0.04227736  0.74895855  0.19414559     0.07900
H235        H  0.08386521  0.73538439  0.22510282     0.09100
Cu236      Cu  0.02658117  0.74542737  0.23781007     0.44200
Cu237      Cu  0.06213227  0.73601884  0.26445991     0.42000
Cu238      Cu  0.02694166  0.74760457  0.29048873     0.43900
N239        N  0.00709920  0.74903714  0.25472411    -0.34600
N240        N  0.00729868  0.74961917  0.27408916    -0.28800
C241        C  0.99303153  0.75231725  0.28081830    -0.04900
C242        C  0.98338214  0.75352833  0.26491456     0.07300
C243        C  0.99266065  0.75138611  0.24858260     0.01100
H244        H  0.98996032  0.75356904  0.29615859     0.08700
H245        H  0.98921563  0.75171845  0.23337565     0.07800
N246        N  0.04789820  0.74676796  0.30396723    -0.36000
N247        N  0.06079270  0.74183363  0.29463404    -0.28200
C248        C  0.07229066  0.74373592  0.30749389    -0.03400
C249        C  0.06633373  0.75043783  0.32577214     0.05200
C250        C  0.05082138  0.75217073  0.32291775     0.03300
H251        H  0.08414629  0.74162139  0.30361407     0.08400
H252        H  0.04224870  0.75732207  0.33373114     0.07200
C253        C  0.29576008  0.62312226  0.57257463     0.03200
C254        C  0.28415495  0.64037540  0.56470333    -0.12900
C255        C  0.27360432  0.62888035  0.55142941     0.00700
C256        C  0.27486477  0.59982529  0.54601713    -0.11400
C257        C  0.28633403  0.58230796  0.55383242     0.03200
C258        C  0.29673474  0.59413583  0.56702168    -0.10900
H259        H  0.28321783  0.66264897  0.56913649     0.08800
H260        H  0.26700287  0.59083505  0.53552108     0.06400
H261        H  0.30525908  0.58037253  0.57358843     0.06200
C262        C  0.30779983  0.60171854  0.96900988     0.03200
C263        C  0.30809191  0.57391449  0.97719852    -0.12900
C264        C  0.29722258  0.56524924  0.99110833     0.00700
C265        C  0.28603957  0.58495283  0.99702487    -0.11400
C266        C  0.28542573  0.61280456  0.98899899     0.03200
C267        C  0.29637089  0.62100119  0.97499973    -0.10900
H268        H  0.31677572  0.55885637  0.97265799     0.08800
H269        H  0.27791357  0.57873229  0.00819842     0.06400
H270        H  0.29569997  0.64213179  0.96832702     0.06200
N271        N  0.39099110  0.68236545  0.73902391    -0.27200
N272        N  0.40373900  0.68028593  0.72892094    -0.35000
C273        C  0.40042963  0.67578281  0.70995988     0.01200
C274        C  0.38477320  0.67490564  0.70793807     0.07200
C275        C  0.37920841  0.67927666  0.72677153    -0.05900
H276        H  0.40889314  0.67285812  0.69864051     0.07900
H277        H  0.36749040  0.67963006  0.73146179     0.09100
Cu278      Cu  0.42502262  0.68262064  0.74151681     0.44200
Cu279      Cu  0.39021597  0.68690383  0.76921422     0.42000
Cu280      Cu  0.42631870  0.68485738  0.79459500     0.43900
N281        N  0.44490519  0.68609052  0.75738459    -0.34600
N282        N  0.44542579  0.68682300  0.77674812    -0.28800
C283        C  0.45995350  0.68974582  0.78237583    -0.04900
C284        C  0.46896401  0.69097043  0.76574462     0.07300
C285        C  0.45905839  0.68857095  0.75017445     0.01100
H286        H  0.46363461  0.69126588  0.79744983     0.08700
H287        H  0.46187914  0.68889002  0.73472861     0.07800
N288        N  0.40543303  0.68417386  0.80876408    -0.36000
N289        N  0.39233296  0.68587314  0.79945144    -0.28200
C290        C  0.38098025  0.68471977  0.81261169    -0.03400
C291        C  0.38717950  0.68194685  0.83114661     0.05200
C292        C  0.40273679  0.68160751  0.82812977     0.03300
H293        H  0.36906935  0.68474650  0.80884471     0.08400
H294        H  0.41146831  0.67948661  0.83914702     0.07200
C295        C  0.29273629  0.29055497  0.48664278     0.03200
C296        C  0.28157455  0.27040088  0.49188219    -0.12900
C297        C  0.27032180  0.27728260  0.50572295     0.00700
C298        C  0.27049511  0.30452472  0.51456388    -0.11400
C299        C  0.28155292  0.32499961  0.50949803     0.03200
C300        C  0.29262911  0.31778106  0.49549765    -0.10900
H301        H  0.28151623  0.24948555  0.48493460     0.08800
H302        H  0.26182700  0.30996749  0.52520449     0.06400
H303        H  0.30108573  0.33351489  0.49124383     0.06200
C304        C  0.29470994  0.27664911  0.07585289     0.03200
C305        C  0.28422546  0.25766003  0.06737813    -0.12900
C306        C  0.27412404  0.26716274  0.05284339     0.00700
C307        C  0.27469609  0.29598846  0.04661946    -0.11400
C308        C  0.28524099  0.31520253  0.05472131     0.03200
C309        C  0.29515477  0.30535004  0.06934841    -0.10900
H310        H  0.28377161  0.23548796  0.07227533     0.08800
H311        H  0.26709759  0.30333332  0.03519203     0.06400
H312        H  0.30286210  0.32039308  0.07618200     0.06200
N313        N  0.38155728  0.24304643  0.31036285    -0.27200
N314        N  0.39388383  0.24355852  0.32131269    -0.35000
C315        C  0.38974642  0.24769499  0.34013569     0.01200
C316        C  0.37404394  0.25009260  0.34095989     0.07200
C317        C  0.36931994  0.24690341  0.32176107    -0.05900
H318        H  0.39762297  0.24963843  0.35218259     0.07900
H319        H  0.35782563  0.24750804  0.31629378     0.09100
Cu320      Cu  0.41558867  0.24029331  0.30944899     0.44200
Cu321      Cu  0.38146478  0.23884707  0.28028658     0.42000
Cu322      Cu  0.41697068  0.23660307  0.25552486     0.43900
N323        N  0.43543911  0.23849816  0.29289197    -0.34600
N324        N  0.43583694  0.23750642  0.27350417    -0.28800
C325        C  0.45035951  0.23670967  0.26749871    -0.04900
C326        C  0.45955830  0.23708021  0.28384067     0.07300
C327        C  0.44975397  0.23825066  0.29969690     0.01100
H328        H  0.45392015  0.23571541  0.25232388     0.08700
H329        H  0.45277338  0.23887463  0.31504849     0.07800
N330        N  0.39646100  0.23603439  0.24087688    -0.36000
N331        N  0.38333428  0.23695589  0.25018453    -0.28200
C332        C  0.37205808  0.23748049  0.23702506    -0.03400
C333        C  0.37835898  0.23685061  0.21836843     0.05200
C334        C  0.39391322  0.23584138  0.22144848     0.03300
H335        H  0.36017583  0.23856566  0.24091263     0.08400
H336        H  0.40278334  0.23580576  0.21046545     0.07200
C337        C  0.30476283  0.26692641  0.09203698    -0.03100
C338        C  0.29920208  0.24850487  0.10676348    -0.05700
C339        C  0.30833722  0.24066886  0.12258598    -0.20800
C340        C  0.32323962  0.25098237  0.12410588     0.25000
C341        C  0.32892290  0.26911315  0.10923399    -0.18300
C342        C  0.31978673  0.27687467  0.09334585    -0.08300
C343        C  0.33187543  0.24420958  0.14220283    -0.18600
C344        C  0.34693693  0.24792398  0.14425353    -0.23400
C345        C  0.35469659  0.24387748  0.16335066     0.27000
C346        C  0.37014023  0.23660868  0.16369895    -0.20100
C347        C  0.37782019  0.23386120  0.18153895    -0.09800
C348        C  0.37021596  0.23866132  0.19939845    -0.10300
C349        C  0.35475721  0.24602032  0.19897022    -0.03300
C350        C  0.34711375  0.24873501  0.18120042    -0.18400
H351        H  0.28761158  0.24085102  0.10641543     0.10700
H352        H  0.30361332  0.22693666  0.13392337     0.10800
H353        H  0.34020186  0.27811423  0.11001263     0.10500
H354        H  0.32445336  0.29090354  0.08215153     0.11600
H355        H  0.32539545  0.23572651  0.15448699     0.11700
H356        H  0.35388161  0.25370776  0.13169639     0.13600
H357        H  0.37627079  0.23303648  0.15013304     0.10100
H358        H  0.38970245  0.22806471  0.18126948     0.12200
H359        H  0.34854045  0.25040787  0.21231610     0.08800
H360        H  0.33537180  0.25549537  0.18154043     0.11500
C361        C  0.30411250  0.28361817  0.47130948    -0.03100
C362        C  0.31157442  0.25688549  0.47120034    -0.05700
C363        C  0.32198249  0.25022188  0.45635299    -0.20800
C364        C  0.32494709  0.26996071  0.44120442     0.25000
C365        C  0.31774500  0.29698576  0.44162405    -0.18300
C366        C  0.30741480  0.30366496  0.45646492    -0.08300
C367        C  0.33572515  0.26210449  0.42530600    -0.18600
C368        C  0.33455637  0.27311439  0.40708960    -0.23400
C369        C  0.34501659  0.26627798  0.39066650     0.27000
C370        C  0.33997214  0.27145496  0.37151880    -0.20100
C371        C  0.34941792  0.26625597  0.35550022    -0.09800
C372        C  0.36424961  0.25591212  0.35821137    -0.10300
C373        C  0.36946179  0.25117234  0.37741202    -0.03300
C374        C  0.35992855  0.25625009  0.39352095    -0.18400
H375        H  0.30939492  0.24120594  0.48264537     0.10700
H376        H  0.32754564  0.22943697  0.45651846     0.10800
H377        H  0.32014201  0.31318261  0.43062017     0.10500
H378        H  0.30181691  0.32440787  0.45615250     0.11600
H379        H  0.34426219  0.24592619  0.42847367     0.11700
H380        H  0.32502838  0.28705120  0.40367094     0.13600
H381        H  0.32862494  0.27955987  0.36891201     0.10100
H382        H  0.34507398  0.27072169  0.34099513     0.12200
H383        H  0.38084469  0.24332677  0.38000485     0.08800
H384        H  0.36437374  0.25279868  0.40809981     0.11500
C385        C  0.29735492  0.53545873  0.99917250    -0.03100
C386        C  0.31109803  0.52141577  0.00341601    -0.05700
C387        C  0.31114401  0.49315991  0.01051722    -0.20800
C388        C  0.29748642  0.47835306  0.01375005     0.25000
C389        C  0.28372217  0.49235789  0.00941807    -0.18300
C390        C  0.28368029  0.52056304  0.00226823    -0.08300
C391        C  0.29813072  0.44803403  0.02079780    -0.18600
C392        C  0.28640232  0.43455942  0.02963226    -0.23400
C393        C  0.28665065  0.40391272  0.03602496     0.27000
C394        C  0.27274156  0.39009803  0.03955015    -0.20100
C395        C  0.27227434  0.36131350  0.04547932    -0.09800
C396        C  0.28574540  0.34570559  0.04821870    -0.10300
C397        C  0.29970137  0.35956873  0.04499549    -0.03300
C398        C  0.30017773  0.38835927  0.03898921    -0.18400
H399        H  0.32183658  0.53233094  0.00140044     0.10700
H400        H  0.32190973  0.48285815  0.01359019     0.10800
H401        H  0.27294792  0.48149527  0.01093824     0.10500
H402        H  0.27291276  0.53046231  0.99868200     0.11600
H403        H  0.30871896  0.43665118  0.01849686     0.11700
H404        H  0.27589465  0.44617220  0.03204867     0.13600
H405        H  0.26215521  0.40159373  0.03759200     0.10100
H406        H  0.26136070  0.35135924  0.04818513     0.12200
H407        H  0.31027158  0.34805112  0.04699192     0.08800
H408        H  0.31116473  0.39825861  0.03701390     0.11500
C409        C  0.31931262  0.61036650  0.95405145    -0.03100
C410        C  0.32461360  0.59047241  0.94009397    -0.05700
C411        C  0.33550389  0.59847634  0.92618223    -0.20800
C412        C  0.34108094  0.62667819  0.92556835     0.25000
C413        C  0.33592997  0.64660380  0.93953600    -0.18300
C414        C  0.32520606  0.63849017  0.95367248    -0.08300
C415        C  0.35218191  0.63468716  0.91012800    -0.18600
C416        C  0.35200647  0.66057269  0.90126404    -0.29000
C417        C  0.36166355  0.66723497  0.88402998     0.27000
C418        C  0.35561207  0.68397962  0.86882225    -0.20100
C419        C  0.36401082  0.68909684  0.85177136    -0.09800
C420        C  0.37878729  0.67813295  0.84979651    -0.10300
C421        C  0.38514780  0.66254548  0.86543882    -0.03300
C422        C  0.37661322  0.65692996  0.88236733    -0.18400
H423        H  0.32018119  0.56877887  0.93968443     0.10700
H424        H  0.33931372  0.58277237  0.91554786     0.10800
H425        H  0.34032513  0.66833848  0.93970256     0.10500
H426        H  0.32166475  0.65417543  0.96445277     0.11600
H427        H  0.35963243  0.61794903  0.90455764     0.11700
H428        H  0.34340760  0.67620751  0.90537197     0.13600
H429        H  0.34417026  0.69236986  0.86988723     0.10100
H430        H  0.35889887  0.70154718  0.84008532     0.12200
H431        H  0.39652348  0.65389309  0.86434683     0.08800
H432        H  0.38167583  0.64449228  0.89409741     0.11500
C433        C  0.28717292  0.55137233  0.54881291    -0.03100
C434        C  0.30117742  0.53838460  0.54451760    -0.05700
C435        C  0.30196586  0.50905167  0.54023072    -0.20800
C436        C  0.28882412  0.49201642  0.54035840     0.25000
C437        C  0.27476386  0.50516861  0.54444356    -0.18300
C438        C  0.27398231  0.53450063  0.54866610    -0.08300
C439        C  0.29021105  0.46104147  0.53531043    -0.18600
C440        C  0.27950426  0.44127414  0.53948295    -0.23400
C441        C  0.28044801  0.41104620  0.53276248     0.27000
C442        C  0.26693954  0.39633325  0.52878728    -0.20100
C443        C  0.26728499  0.36836454  0.52142561    -0.09800
C444        C  0.28118734  0.35426433  0.51820921    -0.10300
C445        C  0.29471749  0.36864052  0.52293258    -0.03300
C446        C  0.29436851  0.39675968  0.53011707    -0.18400
H447        H  0.31150252  0.55099467  0.54431402     0.10700
H448        H  0.31290361  0.49959818  0.53687498     0.10800
H449        H  0.26426647  0.49322046  0.54407519     0.10500
H450        H  0.26304943  0.54396318  0.55201916     0.11600
H451        H  0.30040194  0.45449107  0.52753588     0.11700
H452        H  0.26923136  0.44749601  0.54714324     0.13600
H453        H  0.25607703  0.40684726  0.53082404     0.10100
H454        H  0.25665194  0.35811467  0.51774491     0.12200
H455        H  0.30559121  0.35811957  0.52111621     0.08800
H456        H  0.30498433  0.40710897  0.53371488     0.11500
C457        C  0.37592618  0.66930508  0.68983106    -0.03100
C458        C  0.38324200  0.66554965  0.67164457    -0.05700
C459        C  0.37484776  0.66003097  0.65470363    -0.20800
C460        C  0.35897060  0.65845242  0.65548191     0.25000
C461        C  0.35165952  0.66171808  0.67369179    -0.18300
C462        C  0.36002616  0.66720968  0.69060309    -0.08300
C463        C  0.35041707  0.65207018  0.63728270    -0.18600
C464        C  0.33583104  0.65997266  0.63471199    -0.23400
C465        C  0.32632726  0.65209996  0.61753474     0.27000
C466        C  0.31108650  0.66099456  0.61745132    -0.20100
C467        C  0.30126005  0.65238499  0.60256119    -0.09800
C468        C  0.30646758  0.63466920  0.58733544    -0.10300
C469        C  0.32183290  0.62661995  0.58696768    -0.03300
C470        C  0.33166201  0.63514817  0.60187821    -0.18400
H471        H  0.39544887  0.66682745  0.67037998     0.10700
H472        H  0.38077492  0.65717940  0.64090668     0.10800
H473        H  0.33949590  0.65944057  0.67509418     0.10500
H474        H  0.35393277  0.66950348  0.70428091     0.11600
H475        H  0.35653489  0.64090356  0.62582208     0.11700
H476        H  0.33033858  0.67269066  0.64600383     0.13600
H477        H  0.30662801  0.67405475  0.62926518     0.10100
H478        H  0.28945243  0.65871373  0.60338728     0.12200
H479        H  0.32622784  0.61335802  0.57522609     0.08800
H480        H  0.34326796  0.62785468  0.60105184     0.11500
C481        C  0.18792300  0.77355987  0.48991144    -0.03100
C482        C  0.20266516  0.78483867  0.49112377    -0.05700
C483        C  0.21468028  0.76763890  0.49755643    -0.20800
C484        C  0.21220811  0.73893590  0.50315964     0.25000
C485        C  0.19748242  0.72745202  0.50150570    -0.18300
C486        C  0.18548380  0.74462895  0.49495881    -0.08300
C487        C  0.22532357  0.72172508  0.51028889    -0.18600
C488        C  0.22390249  0.69801286  0.52156744    -0.23400
C489        C  0.23699103  0.68092368  0.52886691     0.27000
C490        C  0.23454328  0.65216165  0.53428325    -0.20100
C491        C  0.24641371  0.63530347  0.54149385    -0.09800
C492        C  0.26104282  0.64688912  0.54359201    -0.10300
C493        C  0.26348115  0.67580647  0.53837951    -0.03300
C494        C  0.25158949  0.69269629  0.53115889    -0.18400
H495        H  0.20490172  0.80696313  0.48701928     0.10700
H496        H  0.22592630  0.77692278  0.49841704     0.10800
H497        H  0.19513619  0.70520043  0.50499428     0.10500
H498        H  0.17422610  0.73540636  0.49412442     0.11600
H499        H  0.23654059  0.72937135  0.50630130     0.11700
H500        H  0.21269951  0.69033429  0.52557287     0.13600
H501        H  0.22338282  0.64265187  0.53289685     0.10100
H502        H  0.24406167  0.61328717  0.54574071     0.12200
H503        H  0.27462244  0.68536048  0.53975819     0.08800
H504        H  0.25387490  0.71500456  0.52775364     0.11500
C505        C  0.07477248  0.75638555  0.34404754    -0.03100
C506        C  0.06848143  0.77411365  0.35862673    -0.05700
C507        C  0.07676713  0.78081399  0.37544900    -0.20800
C508        C  0.09133445  0.76940712  0.37823976     0.25000
C509        C  0.09754083  0.75131146  0.36381422    -0.18300
C510        C  0.08936094  0.74498446  0.34685796    -0.08300
C511        C  0.10030511  0.77849223  0.39547000    -0.18600
C512        C  0.11085327  0.76157826  0.40387456    -0.23400
C513        C  0.12095181  0.77186027  0.41968149     0.27000
C514        C  0.12634646  0.75230894  0.43373733    -0.20100
C515        C  0.13641509  0.76130000  0.44829247    -0.09800
C516        C  0.14147025  0.78996589  0.44884867    -0.10300
C517        C  0.13623563  0.80937133  0.43451595    -0.03300
C518        C  0.12605803  0.80046639  0.42014159    -0.18400
H519        H  0.05733131  0.78349679  0.35680648     0.10700
H520        H  0.07183339  0.79508063  0.38625860     0.10800
H521        H  0.10891040  0.74278178  0.36527757     0.10500
H522        H  0.09449111  0.73121616  0.33591979     0.11600
H523        H  0.09805359  0.79968529  0.40148420     0.11700
H524        H  0.11203609  0.73936992  0.39921512     0.13600
H525        H  0.12268195  0.73007859  0.43351541     0.10100
H526        H  0.14015037  0.74587515  0.45918788     0.12200
H527        H  0.14023866  0.83137989  0.43415894     0.08800
H528        H  0.12254866  0.81580620  0.40907108     0.11500
C529        C  0.27320243  0.63303961  0.99512287    -0.03100
C530        C  0.27628078  0.66235109  0.99812344    -0.05700
C531        C  0.26476331  0.68115718  0.00409742    -0.20800
C532        C  0.24992989  0.67114106  0.00733473     0.25000
C533        C  0.24680430  0.64185359  0.00407256    -0.18300
C534        C  0.25830875  0.62307909  0.99809213    -0.08300
C535        C  0.23797485  0.69213153  0.01321451    -0.18600
C536        C  0.22479021  0.68460030  0.02194244    -0.23400
C537        C  0.21248619  0.70529787  0.02706825     0.27000
C538        C  0.19781819  0.69452859  0.03042796    -0.20100
C539        C  0.18582350  0.71301592  0.03507837    -0.09800
C540        C  0.18822703  0.74278792  0.03660006    -0.10300
C541        C  0.20294445  0.75358867  0.03355620    -0.03300
C542        C  0.21495498  0.73509624  0.02892256    -0.18400
H543        H  0.28764682  0.67069097  0.99611243     0.10700
H544        H  0.26748091  0.70362645  0.00632671     0.10800
H545        H  0.23545784  0.63333831  0.00561767     0.10500
H546        H  0.25546829  0.60077501  0.99544512     0.11600
H547        H  0.24026355  0.71458495  0.01008278     0.11700
H548        H  0.22261110  0.66212504  0.02516963     0.13600
H549        H  0.19557676  0.67169759  0.02920819     0.10100
H550        H  0.17460087  0.70404338  0.03718533     0.12200
H551        H  0.20522822  0.77635733  0.03505455     0.08800
H552        H  0.22612453  0.74431721  0.02715377     0.11500
C553        C  0.07490526  0.74587717  0.18407440    -0.03100
C554        C  0.06919560  0.76333125  0.16893533    -0.05700
C555        C  0.07780710  0.76842306  0.15202040    -0.20800
C556        C  0.09212624  0.75566189  0.14968725     0.25000
C557        C  0.09775194  0.73785199  0.16472168    -0.18300
C558        C  0.08924131  0.73311976  0.18176310    -0.08300
C559        C  0.10132087  0.76282382  0.13206249    -0.18600
C560        C  0.11181792  0.74493883  0.12448193    -0.23400
C561        C  0.12162612  0.75288166  0.10757664     0.27000
C562        C  0.12727879  0.73116738  0.09532796    -0.20100
C563        C  0.13706872  0.73786100  0.07977928    -0.09800
C564        C  0.14166286  0.76643023  0.07636941    -0.10300
C565        C  0.13606182  0.78811579  0.08880424    -0.03300
C566        C  0.12613542  0.78145976  0.10416750    -0.18400
H567        H  0.05826673  0.77375638  0.17038853     0.10700
H568        H  0.07330288  0.78248059  0.14075009     0.10800
H569        H  0.10891381  0.72827397  0.16365925     0.10500
H570        H  0.09392115  0.71955875  0.19317961     0.11600
H571        H  0.09904925  0.78321505  0.12482194     0.11700
H572        H  0.11302021  0.72338767  0.13047318     0.13600
H573        H  0.12405340  0.70895619  0.09775371     0.10100
H574        H  0.14099511  0.72064059  0.07040177     0.12200
H575        H  0.13966778  0.81022586  0.08703972     0.08800
H576        H  0.12242513  0.79862181  0.11373070     0.11500
C577        C  0.18111107  0.13292382  0.99855510    -0.03100
C578        C  0.17723994  0.16068263  0.00488565    -0.05700
C579        C  0.18846770  0.17981662  0.01102101    -0.20800
C580        C  0.20381458  0.17167310  0.01108653     0.25000
C581        C  0.20771038  0.14382830  0.00474530    -0.18300
C582        C  0.19646218  0.12467540  0.99861535    -0.08300
C583        C  0.21529247  0.19327880  0.01725205    -0.18600
C584        C  0.22941264  0.18663819  0.02337814    -0.23400
C585        C  0.24068427  0.20829736  0.03022127     0.27000
C586        C  0.25591570  0.19984158  0.03216330    -0.20100
C587        C  0.26681235  0.21898972  0.03926263    -0.09800
C588        C  0.26272679  0.24711906  0.04457166    -0.10300
C589        C  0.24754703  0.25573281  0.04252707    -0.03300
C590        C  0.23662325  0.23655361  0.03556886    -0.18400
H591        H  0.16550126  0.16756178  0.00519057     0.10700
H592        H  0.18513353  0.20111363  0.01578789     0.10800
H593        H  0.21939973  0.13688533  0.00397125     0.10500
H594        H  0.19982138  0.10360312  0.99345122     0.11600
H595        H  0.21165777  0.21553250  0.01697762     0.11700
H596        H  0.23298227  0.16431507  0.02364523     0.13600
H597        H  0.25939942  0.17825462  0.02825023     0.10100
H598        H  0.27845991  0.21182317  0.04056648     0.12200
H599        H  0.24403287  0.27712562  0.04685403     0.08800
H600        H  0.22502139  0.24395424  0.03497741     0.11500
C601        C  0.15979581  0.03327468  0.99523244    -0.03100
C602        C  0.16369741  0.02512795  0.01442191    -0.05700
C603        C  0.16541561  0.99616368  0.01935808    -0.20800
C604        C  0.16301445  0.97468403  0.00535140     0.25000
C605        C  0.15893833  0.98267598  0.98617601    -0.18300
C606        C  0.15735275  0.01172551  0.98117169    -0.08300
C607        C  0.16532110  0.94428742  0.01115652    -0.18600
C608        C  0.15749600  0.92237957  0.00330788    -0.23400
C609        C  0.15909729  0.89252101  0.01064784     0.27000
C610        C  0.14628789  0.87469021  0.01134313    -0.20100
C611        C  0.14726786  0.84702356  0.01933303    -0.09800
C612        C  0.16117082  0.83650956  0.02640204    -0.10300
C613        C  0.17412413  0.85398227  0.02499200    -0.03300
C614        C  0.17310334  0.88175373  0.01722380    -0.18400
H615        H  0.16543724  0.04118628  0.02564910     0.10700
H616        H  0.16854999  0.99049022  0.03422310     0.10800
H617        H  0.15737599  0.96661720  0.97491630     0.10500
H618        H  0.15461617  0.01734299  0.96617421     0.11600
H619        H  0.17288186  0.94009272  0.02338915     0.11700
H620        H  0.14872928  0.92674696  0.99254792     0.13600
H621        H  0.13541737  0.88248338  0.00619519     0.10100
H622        H  0.13715391  0.83385061  0.02004929     0.12200
H623        H  0.18496709  0.84643158  0.03038692     0.08800
H624        H  0.18326072  0.89478055  0.01641477     0.11500
C625        C  0.06251123  0.14990260  0.85952408    -0.03100
C626        C  0.05589817  0.15256821  0.87824119    -0.05700
C627        C  0.06435496  0.14649977  0.89513300    -0.20800
C628        C  0.07959288  0.13801474  0.89362924     0.25000
C629        C  0.08601709  0.13445013  0.87492146    -0.18300
C630        C  0.07761886  0.14041183  0.85813379    -0.08300
C631        C  0.08859459  0.13232957  0.91159620    -0.18600
C632        C  0.10365560  0.13721589  0.91208096    -0.23400
C633        C  0.11385255  0.12990520  0.92867318     0.27000
C634        C  0.12886046  0.13991288  0.92783418    -0.20100
C635        C  0.13939650  0.13179441  0.94202774    -0.09800
C636        C  0.13519007  0.11336433  0.95745020    -0.10300
C637        C  0.12009986  0.10369840  0.95857383    -0.03300
C638        C  0.10951466  0.11184283  0.94433030    -0.18400
H639        H  0.04427736  0.15965403  0.87990725     0.10700
H640        H  0.05908603  0.14896536  0.90939705     0.10800
H641        H  0.09751777  0.12668926  0.87315889     0.10500
H642        H  0.08305900  0.13730977  0.84408035     0.11600
H643        H  0.08261645  0.12480224  0.92454237     0.11700
H644        H  0.10897737  0.14723647  0.89939988     0.13600
H645        H  0.13256690  0.15363500  0.91587433     0.10100
H646        H  0.15098321  0.13923319  0.94056622     0.12200
H647        H  0.11652152  0.08960724  0.97038601     0.08800
H648        H  0.09816027  0.10323761  0.94542302     0.11500
C649        C  0.25797841  0.25663510  0.51039095    -0.03100
C650        C  0.25103149  0.24068505  0.49544121    -0.05700
C651        C  0.23877794  0.22263929  0.49966442    -0.20800
C652        C  0.23309761  0.22035895  0.51884169     0.25000
C653        C  0.24037475  0.23554860  0.53393660    -0.18300
C654        C  0.25265266  0.25353162  0.52972121    -0.08300
C655        C  0.21969356  0.20175933  0.52246252    -0.18600
C656        C  0.21018718  0.20526005  0.53776999    -0.23400
C657        C  0.19668797  0.18686888  0.54120509     0.27000
C658        C  0.19111309  0.18396511  0.56039212    -0.20100
C659        C  0.17857962  0.16650836  0.56433894    -0.09800
C660        C  0.17126644  0.15179042  0.54910801    -0.10300
C661        C  0.17657865  0.15529650  0.52981397    -0.03300
C662        C  0.18912251  0.17274512  0.52586418    -0.18400
H663        H  0.25477838  0.24277549  0.48037137     0.10700
H664        H  0.23347453  0.21094911  0.48781083     0.10800
H665        H  0.23677605  0.23346364  0.54904004     0.10500
H666        H  0.25801859  0.26498595  0.54162444     0.11600
H667        H  0.21746180  0.18505800  0.51178878     0.11700
H668        H  0.21239450  0.22189514  0.54849250     0.13600
H669        H  0.19665570  0.19482186  0.57243002     0.10100
H670        H  0.17482346  0.16401086  0.57937842     0.12200
H671        H  0.17095090  0.14467498  0.51775161     0.08800
H672        H  0.19268364  0.17536368  0.51077935     0.11500
C673        C  0.16017077  0.86735078  0.49333773    -0.03100
C674        C  0.17304431  0.88503638  0.49381579    -0.05700
C675        C  0.17189820  0.91352151  0.49999701    -0.20800
C676        C  0.15790216  0.92501877  0.50597299     0.25000
C677        C  0.14497303  0.90719597  0.50560363    -0.18300
C678        C  0.14613016  0.87866682  0.49932855    -0.08300
C679        C  0.15755112  0.95561035  0.51229223    -0.18600
C680        C  0.14551381  0.96880973  0.52050922    -0.23400
C681        C  0.14602812  0.99912070  0.52723100     0.27000
C682        C  0.13252206  0.01507393  0.52793785    -0.20100
C683        C  0.13252459  0.04339505  0.53475431    -0.09800
C684        C  0.14604446  0.05623362  0.54115878    -0.10300
C685        C  0.15955752  0.04023312  0.54051861    -0.03300
C686        C  0.15955813  0.01195741  0.53371462    -0.18400
H687        H  0.18396733  0.87700491  0.48899699     0.10700
H688        H  0.18203576  0.92668155  0.50005246     0.10800
H689        H  0.13390823  0.91496168  0.50986761     0.10500
H690        H  0.13603574  0.86540224  0.49917666     0.11600
H691        H  0.16789616  0.96784899  0.51005074     0.11700
H692        H  0.13482825  0.95761297  0.52223923     0.13600
H693        H  0.12194319  0.00560109  0.52315955     0.10100
H694        H  0.12195555  0.05527815  0.53500931     0.12200
H695        H  0.17007400  0.04931511  0.54583202     0.08800
H696        H  0.17009298  0.00003155  0.53413626     0.11500
C697        C  0.12399904  0.12901036  0.58711818    -0.03100
C698        C  0.11843199  0.15728382  0.58869047    -0.05700
C699        C  0.10833765  0.16467304  0.60372283    -0.20800
C700        C  0.10369708  0.14404860  0.61754498     0.25000
C701        C  0.10891741  0.11559376  0.61563978    -0.18300
C702        C  0.11902678  0.10824245  0.60070714    -0.08300
C703        C  0.09339473  0.15266881  0.63375201    -0.18600
C704        C  0.09368245  0.13950463  0.65134636    -0.23400
C705        C  0.08397264  0.14766702  0.66822028     0.27000
C706        C  0.08879083  0.13974381  0.68702363    -0.20100
C707        C  0.07996253  0.14603276  0.70342576    -0.09800
C708        C  0.06595866  0.16019889  0.70144610    -0.10300
C709        C  0.06099913  0.16795837  0.68258251    -0.03300
C710        C  0.06993558  0.16179745  0.66608576    -0.18400
H711        H  0.12184367  0.17368661  0.57827104     0.10700
H712        H  0.10433106  0.18665150  0.60474629     0.10800
H713        H  0.10519714  0.09886832  0.62561689     0.10500
H714        H  0.12318228  0.08634459  0.60008058     0.11600
H715        H  0.08617336  0.17129765  0.63149401     0.11700
H716        H  0.10205255  0.12279449  0.65398212     0.13600
H717        H  0.09946752  0.12857574  0.68905756     0.10100
H718        H  0.08407319  0.13923874  0.71762658     0.12200
H719        H  0.05025394  0.17882996  0.68055809     0.08800
H720        H  0.06566914  0.16757707  0.65175275     0.11500
C721        C  0.63386996  0.32170108  0.45967108    -0.03100
C722        C  0.63208454  0.33737577  0.44219687    -0.05700
C723        C  0.62312190  0.32662078  0.42707168    -0.20800
C724        C  0.61553128  0.30029750  0.42924277     0.25000
C725        C  0.61721054  0.28464141  0.44678439    -0.18300
C726        C  0.62637549  0.29521639  0.46182916    -0.08300
C727        C  0.60664782  0.28916297  0.41252373    -0.18600
C728        C  0.59432045  0.27235168  0.41461039    -0.23400
C729        C  0.58554810  0.26231283  0.39744114     0.27000
C730        C  0.56973511  0.25965696  0.39878835    -0.20100
C731        C  0.56119942  0.25198722  0.38233402    -0.09800
C732        C  0.56837239  0.24644825  0.36426590    -0.10300
C733        C  0.58431050  0.24760812  0.36334185    -0.03300
C734        C  0.59278305  0.25549532  0.37969336    -0.18400
H735        H  0.63792264  0.35763976  0.44005664     0.10700
H736        H  0.62211306  0.33890025  0.41360753     0.10800
H737        H  0.61179163  0.26394059  0.44870772     0.10500
H738        H  0.62761534  0.28273084  0.47516643     0.11600
H739        H  0.60992745  0.29644237  0.39795937     0.11700
H740        H  0.58997568  0.26747732  0.42916322     0.13600
H741        H  0.56394045  0.26441032  0.41242750     0.10100
H742        H  0.54898967  0.25103122  0.38374765     0.12200
H743        H  0.59036063  0.24284658  0.34993955     0.08800
H744        H  0.60502033  0.25628653  0.37840157     0.11500
C745        C  0.62502276  0.30644308  0.09223811    -0.03100
C746        C  0.61816894  0.27915651  0.09156489    -0.05700
C747        C  0.60809570  0.27041060  0.10634516    -0.20800
C748        C  0.60488422  0.28853007  0.12224319     0.25000
C749        C  0.61156892  0.31599721  0.12273944    -0.18300
C750        C  0.62153335  0.32479465  0.10793326    -0.08300
C751        C  0.59450486  0.27842731  0.13806125    -0.18600
C752        C  0.59613687  0.28692590  0.15678648    -0.23400
C753        C  0.58651967  0.27690846  0.17337813     0.27000
C754        C  0.59242243  0.27904645  0.19236262    -0.20100
C755        C  0.58381707  0.27083520  0.20861972    -0.09800
C756        C  0.56895460  0.26047549  0.20636973    -0.10300
C757        C  0.56291618  0.25855072  0.18734603    -0.03300
C758        C  0.57162059  0.26663480  0.17097333    -0.18400
H759        H  0.62048612  0.26470800  0.07950199     0.10700
H760        H  0.60297705  0.24927596  0.10552103     0.10800
H761        H  0.60901611  0.33089802  0.13444548     0.10500
H762        H  0.62666544  0.34589841  0.10888758     0.11600
H763        H  0.58606923  0.26234130  0.13440427     0.11700
H764        H  0.60559606  0.30082862  0.16046585     0.13600
H765        H  0.60379755  0.28715053  0.19465849     0.10100
H766        H  0.58882684  0.27310974  0.22297614     0.12200
H767        H  0.55149985  0.25073133  0.18507447     0.08800
H768        H  0.56654802  0.26534906  0.15658596     0.11500
C769        C  0.64396024  0.38282016  0.04608841    -0.03100
C770        C  0.64547854  0.38722962  0.02579193    -0.05700
C771        C  0.64450578  0.41489263  0.01780265    -0.20800
C772        C  0.64215701  0.43888454  0.02988258     0.25000
C773        C  0.64030035  0.43442969  0.05019502    -0.18300
C774        C  0.64121954  0.40669515  0.05818278    -0.08300
C775        C  0.64163524  0.46793726  0.02059747    -0.18600
C776        C  0.64435184  0.49262089  0.03032499    -0.23400
C777        C  0.64487976  0.52169213  0.02098362     0.27000
C778        C  0.64503036  0.54596951  0.03320565    -0.20100
C779        C  0.64619538  0.57368945  0.02530888    -0.09800
C780        C  0.64715613  0.57779429  0.00495691    -0.10300
C781        C  0.64692716  0.55366503  0.99265038    -0.03300
C782        C  0.64591244  0.52589994  0.00053453    -0.18400
H783        H  0.64729492  0.36921102  0.01604215     0.10700
H784        H  0.64578732  0.41759313  0.00210275     0.10800
H785        H  0.63798286  0.45211894  0.05999804     0.10500
H786        H  0.63997542  0.40396179  0.07387923     0.11600
H787        H  0.63947075  0.46855119  0.00498192     0.11700
H788        H  0.64663040  0.49173586  0.04592476     0.13600
H789        H  0.64432691  0.54348065  0.04897841     0.10100
H790        H  0.64628128  0.59197142  0.03510523     0.12200
H791        H  0.64790280  0.55627800  0.97691012     0.08800
H792        H  0.64629922  0.50803313  0.99047879     0.11500
C793        C  0.57936587  0.70215460  0.83965834    -0.03100
C794        C  0.59466344  0.71061012  0.84018924    -0.05700
C795        C  0.60369746  0.70394309  0.85637803    -0.20800
C796        C  0.59763686  0.68897625  0.87248076     0.25000
C797        C  0.58234226  0.68044419  0.87197918    -0.18300
C798        C  0.57331202  0.68706086  0.85577848    -0.08300
C799        C  0.60778612  0.68164881  0.88908766    -0.18600
C800        C  0.60279036  0.67698078  0.90752094    -0.23400
C801        C  0.61291786  0.66912784  0.92409379     0.27000
C802        C  0.60658226  0.65553527  0.94060678    -0.20100
C803        C  0.61572422  0.64718063  0.95634578    -0.09800
C804        C  0.63140112  0.65256382  0.95599439    -0.10300
C805        C  0.63769846  0.66680257  0.93970549    -0.03300
C806        C  0.62857787  0.67509261  0.92395410    -0.18400
H807        H  0.59971448  0.72237602  0.82811977     0.10700
H808        H  0.61547363  0.71059501  0.85635230     0.10800
H809        H  0.57737932  0.66799382  0.88378125     0.10500
H810        H  0.56167631  0.67971380  0.85578315     0.11600
H811        H  0.61980747  0.68036758  0.88581949     0.11700
H812        H  0.59074160  0.67837376  0.91067658     0.13600
H813        H  0.59453234  0.65103386  0.94123022     0.10100
H814        H  0.61052228  0.63668561  0.96886804     0.12200
H815        H  0.64974882  0.67123239  0.93903155     0.08800
H816        H  0.63388289  0.68641660  0.91189270     0.11500
C817        C  0.66626587  0.59776687  0.53623554    -0.03100
C818        C  0.67963284  0.58165589  0.53377977    -0.05700
C819        C  0.67903991  0.55346451  0.52693933    -0.20800
C820        C  0.66508728  0.54054184  0.52266176     0.25000
C821        C  0.65166871  0.55661076  0.52503997    -0.18300
C822        C  0.65226935  0.58493548  0.53181224    -0.08300
C823        C  0.66513749  0.51056079  0.51536577    -0.18600
C824        C  0.65328441  0.49251924  0.51733249    -0.23400
C825        C  0.65360183  0.46204316  0.51089049     0.27000
C826        C  0.63978751  0.44745830  0.50850963    -0.20100
C827        C  0.63956743  0.41846512  0.50314154    -0.09800
C828        C  0.65320152  0.40344609  0.50019378    -0.10300
C829        C  0.66701707  0.41807599  0.50244442    -0.03300
C830        C  0.66724729  0.44693145  0.50786887    -0.18400
H831        H  0.69057790  0.59071456  0.53740055     0.10700
H832        H  0.68953119  0.54156450  0.52521056     0.10800
H833        H  0.64072886  0.54772657  0.52130133     0.10500
H834        H  0.64180376  0.59696393  0.53325471     0.11600
H835        H  0.67557066  0.50315108  0.50862067     0.11700
H836        H  0.64287971  0.50010584  0.52409654     0.13600
H837        H  0.62912239  0.45851095  0.51090670     0.10100
H838        H  0.62875531  0.40765603  0.50168484     0.12200
H839        H  0.67771641  0.40715777  0.50003076     0.08800
H840        H  0.67817710  0.45686789  0.51007817     0.11500
C841        C  0.64731498  0.67527975  0.58112934    -0.03100
C842        C  0.64255594  0.70415699  0.58186471    -0.05700
C843        C  0.63219733  0.71325335  0.59614809    -0.20800
C844        C  0.62618893  0.69363450  0.60977420     0.25000
C845        C  0.63110758  0.66487762  0.60926336    -0.18300
C846        C  0.64155912  0.65585167  0.59514899    -0.08300
C847        C  0.61541462  0.70393502  0.62496693    -0.18600
C848        C  0.60479167  0.68680623  0.63309899    -0.23400
C849        C  0.59469640  0.69600874  0.64935362     0.27000
C850        C  0.58077471  0.68189300  0.65205825    -0.20100
C851        C  0.57149251  0.68844120  0.66809311    -0.09800
C852        C  0.57613910  0.70880595  0.68198021    -0.10300
C853        C  0.58999274  0.72315820  0.67919154    -0.03300
C854        C  0.59916965  0.71692333  0.66301379    -0.18400
H855        H  0.64665851  0.71966492  0.57122890     0.10700
H856        H  0.62871266  0.73559997  0.59640097     0.10800
H857        H  0.62719152  0.64941451  0.62003747     0.10500
H858        H  0.64531896  0.63368253  0.59545417     0.11600
H859        H  0.61602457  0.72641813  0.62913788     0.11700
H860        H  0.60320579  0.66521190  0.62744368     0.13600
H861        H  0.57716134  0.66547982  0.64185615     0.10100
H862        H  0.56096386  0.67677693  0.67000066     0.12200
H863        H  0.59384056  0.73896391  0.68967913     0.08800
H864        H  0.60999617  0.72770905  0.66170549     0.11500
C865        C  0.75866719  0.78380622  0.04215101    -0.03100
C866        C  0.76171290  0.75492883  0.03755323    -0.05700
C867        C  0.75013573  0.73683786  0.03100319    -0.20800
C868        C  0.73522286  0.74705992  0.02893320     0.25000
C869        C  0.73222670  0.77614308  0.03320838    -0.18300
C870        C  0.74379241  0.79418684  0.03982820    -0.08300
C871        C  0.72333810  0.72671311  0.02201421    -0.18600
C872        C  0.70828244  0.73172097  0.02315977    -0.23400
C873        C  0.69661651  0.71108794  0.01617111     0.27000
C874        C  0.68227871  0.72166885  0.01090220    -0.20100
C875        C  0.67095446  0.70306653  0.00430074    -0.09800
C876        C  0.67366835  0.67332329  0.00294349    -0.10300
C877        C  0.68795070  0.66265635  0.00855329    -0.03300
C878        C  0.69927555  0.68126950  0.01517131    -0.18400
H879        H  0.77309236  0.74635512  0.03883054     0.10700
H880        H  0.75284480  0.71466520  0.02762450     0.10800
H881        H  0.72107119  0.78535153  0.03137518     0.10500
H882        H  0.74100742  0.81625016  0.04338276     0.11600
H883        H  0.72729327  0.70661764  0.01577740     0.11700
H884        H  0.70412856  0.75184339  0.02906458     0.13600
H885        H  0.67985538  0.74447944  0.01177532     0.10100
H886        H  0.66000229  0.71197442  0.00046727     0.12200
H887        H  0.69046737  0.63990732  0.00759431     0.08800
H888        H  0.70998500  0.67209466  0.01970527     0.11500
C889        C  0.80429744  0.80067186  0.08467502    -0.03100
C890        C  0.79958563  0.78315370  0.10036307    -0.05700
C891        C  0.80976150  0.77539506  0.11513104    -0.20800
C892        C  0.82486218  0.78501814  0.11466420     0.25000
C893        C  0.82972242  0.80170763  0.09854652    -0.18300
C894        C  0.81954354  0.80939469  0.08376077    -0.08300
C895        C  0.83469942  0.77829261  0.13179566    -0.18600
C896        C  0.84883742  0.78859342  0.13439906    -0.23400
C897        C  0.85743396  0.78424177  0.15283858     0.27000
C898        C  0.87333366  0.78464841  0.15227019    -0.20100
C899        C  0.88174883  0.78184692  0.16950902    -0.09800
C900        C  0.87440868  0.77897631  0.18774469    -0.10300
C901        C  0.85846857  0.77883369  0.18829618    -0.03300
C902        C  0.85007417  0.78151444  0.17107123    -0.18400
H903        H  0.78788947  0.77628834  0.10162084     0.10700
H904        H  0.80566860  0.76249089  0.12729965     0.10800
H905        H  0.84123731  0.80932749  0.09721093     0.10500
H906        H  0.82359592  0.82242152  0.07164153     0.11600
H907        H  0.82976077  0.76488944  0.14320979     0.11700
H908        H  0.85446070  0.80076182  0.12294584     0.13600
H909        H  0.87926194  0.78716528  0.13843342     0.10100
H910        H  0.89398968  0.78240837  0.16850003     0.12200
H911        H  0.85239049  0.77671787  0.20202057     0.08800
H912        H  0.83783527  0.78217878  0.17219588     0.11500
C913        C  0.69377714  0.69110300  0.53937483    -0.03100
C914        C  0.69737705  0.69459736  0.51944528    -0.05700
C915        C  0.71045638  0.70943274  0.51378229    -0.20800
C916        C  0.72034036  0.72072104  0.52788994     0.25000
C917        C  0.71653363  0.71778536  0.54787748    -0.18300
C918        C  0.70336469  0.70312770  0.55352938    -0.08300
C919        C  0.73417869  0.73608256  0.52104574    -0.18600
C920        C  0.74652699  0.74049345  0.53224199    -0.23400
C921        C  0.75990256  0.75714950  0.52533427     0.27000
C922        C  0.76860355  0.77210042  0.53914262    -0.20100
C923        C  0.78055289  0.78980903  0.53309838    -0.09800
C924        C  0.78419963  0.79251152  0.51311913    -0.10300
C925        C  0.77606806  0.77627257  0.49938026    -0.03300
C926        C  0.76403086  0.75875305  0.50540521    -0.18400
H927        H  0.69008853  0.68569239  0.50824884     0.10700
H928        H  0.71298919  0.71171233  0.49830204     0.10800
H929        H  0.72354142  0.72694593  0.55922302     0.10500
H930        H  0.70085037  0.70059549  0.56899282     0.11600
H931        H  0.73409095  0.74402950  0.50606653     0.11700
H932        H  0.74669929  0.73287416  0.54728265     0.13600
H933        H  0.76581273  0.77085545  0.55460058     0.10100
H934        H  0.78679195  0.80180350  0.54400470     0.12200
H935        H  0.77865927  0.77794591  0.48388591     0.08800
H936        H  0.75796116  0.74668962  0.49440671     0.11500
C937        C  0.87714765  0.78925374  0.34790593    -0.03100
C938        C  0.86129652  0.79247604  0.34767740    -0.05700
C939        C  0.85319919  0.79611767  0.36505509    -0.20800
C940        C  0.86065768  0.79668864  0.38316331     0.25000
C941        C  0.87651908  0.79314001  0.38353402    -0.18300
C942        C  0.88466265  0.78954909  0.36606417    -0.08300
C943        C  0.85123177  0.80038957  0.40105395    -0.18600
C944        C  0.85665798  0.80565888  0.41911885    -0.23400
C945        C  0.84647393  0.80979673  0.43625739     0.27000
C946        C  0.85136362  0.82681244  0.45195338    -0.20100
C947        C  0.84170616  0.83227085  0.46781855    -0.09800
C948        C  0.82699150  0.82060193  0.46834071    -0.10300
C949        C  0.82231920  0.80276282  0.45293563    -0.03300
C950        C  0.83197671  0.79719695  0.43717569    -0.18400
H951        H  0.85499545  0.79215449  0.33412276     0.10700
H952        H  0.84098835  0.79855369  0.36430431     0.10800
H953        H  0.88273632  0.79277931  0.39715065     0.10500
H954        H  0.89683711  0.78698888  0.36688185     0.11600
H955        H  0.83904053  0.79985336  0.39893667     0.11700
H956        H  0.86870800  0.80874787  0.42137815     0.13600
H957        H  0.86256257  0.83639235  0.45174531     0.10100
H958        H  0.84573007  0.84569022  0.47965148     0.12200
H959        H  0.81104239  0.79355136  0.45281947     0.08800
H960        H  0.82799682  0.78298549  0.42578368     0.11500
C961        C  0.66934418  0.28630023  0.04789295    -0.03100
C962        C  0.66573029  0.25776814  0.04311953    -0.05700
C963        C  0.67683370  0.23927110  0.03567616    -0.20800
C964        C  0.69183904  0.24869991  0.03308350     0.25000
C965        C  0.69546975  0.27731406  0.03784595    -0.18300
C966        C  0.68433064  0.29586794  0.04518310    -0.08300
C967        C  0.70312904  0.22827073  0.02477494    -0.18600
C968        C  0.71826305  0.23078647  0.02710073    -0.23400
C969        C  0.72944216  0.20996622  0.01892024     0.27000
C970        C  0.74459017  0.21869394  0.01647662    -0.20100
C971        C  0.75544459  0.19980537  0.00879590    -0.09800
C972        C  0.75139942  0.17162066  0.00362168    -0.10300
C973        C  0.73631044  0.16273640  0.00634998    -0.03300
C974        C  0.72547232  0.18158070  0.01397589    -0.18400
H975        H  0.65423356  0.24991566  0.04479178     0.10700
H976        H  0.67368680  0.21744575  0.03195416     0.10800
H977        H  0.70676687  0.28573785  0.03557036     0.10500
H978        H  0.68744723  0.31774208  0.04878894     0.11600
H979        H  0.69859638  0.21025175  0.01663615     0.11700
H980        H  0.72279787  0.24888173  0.03517343     0.13600
H981        H  0.74801539  0.24029246  0.02038650     0.10100
H982        H  0.76703441  0.20713120  0.00709092     0.12200
H983        H  0.73282867  0.14119220  0.00240296     0.08800
H984        H  0.71410387  0.17351480  0.01620814     0.11500
C985        C  0.77316423  0.07233847  0.99921812    -0.03100
C986        C  0.75965286  0.05638578  0.99951918    -0.05700
C987        C  0.75984826  0.02724088  0.00464669    -0.20800
C988        C  0.77347634  0.01374910  0.00998979     0.25000
C989        C  0.78699750  0.02979847  0.00973567    -0.18300
C990        C  0.78683118  0.05879845  0.00432421    -0.08300
C991        C  0.77335007  0.98272372  0.01507071    -0.18600
C992        C  0.78314079  0.97100622  0.02791420    -0.23400
C993        C  0.78291704  0.94009403  0.03324650     0.27000
C994        C  0.78737553  0.93183845  0.05214191    -0.20100
C995        C  0.78728032  0.90289117  0.05768982    -0.09800
C996        C  0.78306607  0.88141811  0.04426942    -0.10300
C997        C  0.77893825  0.88974498  0.02515786    -0.03300
C998        C  0.77879330  0.91876808  0.01972425    -0.18400
H999        H  0.74901269  0.06634477  0.99539595     0.10700
H1000       H  0.74932428  0.01522683  0.00455059     0.10800
H1001       H  0.79775911  0.01986574  0.01326092     0.10500
H1002       H  0.79738630  0.07071163  0.00412395     0.11600
H1003       H  0.76442919  0.96951947  0.00885380     0.11700
H1004       H  0.79101817  0.98477620  0.03569950     0.13600
H1005       H  0.79067160  0.94790858  0.06277017     0.10100
H1006       H  0.79026901  0.89744837  0.07262609     0.12200
H1007       H  0.77600507  0.87381826  0.01427681     0.08800
H1008       H  0.77575993  0.92439976  0.00483385     0.11500
C1009       C  0.79269932  0.14962458  0.95520652    -0.03100
C1010       C  0.79229916  0.13374555  0.93775752    -0.05700
C1011       C  0.80133402  0.14166966  0.92180491    -0.20800
C1012       C  0.81118937  0.16524500  0.92308681     0.25000
C1013       C  0.81153637  0.18133153  0.94053012    -0.18300
C1014       C  0.80228431  0.17363925  0.95643212    -0.08300
C1015       C  0.82055411  0.17276593  0.90572002    -0.18600
C1016       C  0.83415663  0.18580600  0.90686944    -0.23400
C1017       C  0.84368760  0.19161783  0.88930319     0.27000
C1018       C  0.85952654  0.19250689  0.89118854    -0.20100
C1019       C  0.86879926  0.19685991  0.87473539    -0.09800
C1020       C  0.86238344  0.20072912  0.85605264    -0.10300
C1021       C  0.84647315  0.20084043  0.85437948    -0.03300
C1022       C  0.83725181  0.19641125  0.87076491    -0.18400
H1023       H  0.78484279  0.11535392  0.93640805     0.10700
H1024       H  0.80074416  0.12913849  0.90846953     0.10800
H1025       H  0.81871846  0.20008648  0.94181547     0.10500
H1026       H  0.80270903  0.18622739  0.96974787     0.11600
H1027       H  0.81652413  0.16536587  0.89158583     0.11700
H1028       H  0.83893834  0.19055364  0.92114378     0.13600
H1029       H  0.86475318  0.18923602  0.90537526     0.10100
H1030       H  0.88096547  0.19692663  0.87670643     0.12200
H1031       H  0.84098654  0.20413400  0.84041249     0.08800
H1032       H  0.82507734  0.19697980  0.86884039     0.11500
C1033       C  0.75331574  0.17771550  0.54793806    -0.03100
C1034       C  0.73903947  0.16524518  0.54457856    -0.05700
C1035       C  0.72713599  0.18172367  0.53706460    -0.20800
C1036       C  0.72917106  0.21104367  0.53293966     0.25000
C1037       C  0.74354699  0.22342113  0.53594697    -0.18300
C1038       C  0.75545126  0.20693330  0.54344363    -0.08300
C1039       C  0.71611525  0.22775294  0.52524860    -0.18600
C1040       C  0.71497936  0.25652000  0.52681631    -0.23400
C1041       C  0.70193958  0.27328789  0.51923709     0.27000
C1042       C  0.70421638  0.30231311  0.51449226    -0.20100
C1043       C  0.69229308  0.31906080  0.50741921    -0.09800
C1044       C  0.67772750  0.30723408  0.50518833    -0.10300
C1045       C  0.67536853  0.27823975  0.51015105    -0.03300
C1046       C  0.68734398  0.26140889  0.51717640    -0.18400
H1047       H  0.73700267  0.14282064  0.54802017     0.10700
H1048       H  0.71622187  0.17161588  0.53473407     0.10800
H1049       H  0.74580733  0.24562231  0.53221198     0.10500
H1050       H  0.76642862  0.21694747  0.54538491     0.11600
H1051       H  0.70703636  0.21570052  0.51840547     0.11700
H1052       H  0.72402370  0.26864741  0.53365106     0.13600
H1053       H  0.71532541  0.31198980  0.51603487     0.10100
H1054       H  0.69453941  0.34122682  0.50344024     0.12200
H1055       H  0.66420827  0.26871498  0.50889880     0.08800
H1056       H  0.68502008  0.23938047  0.52133532     0.11500
C1057       C  0.78211909  0.08499746  0.54992601    -0.03100
C1058       C  0.76944174  0.06713362  0.54739627    -0.05700
C1059       C  0.77123825  0.03891085  0.54091321    -0.20800
C1060       C  0.78572699  0.02780116  0.53701832     0.25000
C1061       C  0.79845076  0.04568408  0.53945864    -0.18300
C1062       C  0.79664531  0.07398839  0.54590551    -0.08300
C1063       C  0.78695653  0.99782176  0.52985897    -0.18600
C1064       C  0.79941753  0.98138404  0.53214831    -0.23400
C1065       C  0.80044865  0.95111083  0.52535220     0.27000
C1066       C  0.81485202  0.93876206  0.52276598    -0.20100
C1067       C  0.81634445  0.91028353  0.51653392    -0.09800
C1068       C  0.80342612  0.89347010  0.51293220    -0.10300
C1069       C  0.78901178  0.90573487  0.51566089    -0.03300
C1070       C  0.78751431  0.93413158  0.52191586    -0.18400
H1071       H  0.75812232  0.07490777  0.55060939     0.10700
H1072       H  0.76126284  0.02560151  0.53908383     0.10800
H1073       H  0.80976213  0.03822413  0.53598500     0.10500
H1074       H  0.80659155  0.08745734  0.54738092     0.11600
H1075       H  0.77699486  0.98905094  0.52279398     0.11700
H1076       H  0.80936018  0.99030672  0.53920936     0.13600
H1077       H  0.82499514  0.95123983  0.52550471     0.10100
H1078       H  0.82760096  0.90129437  0.51476477     0.12200
H1079       H  0.77883991  0.89340753  0.51282276     0.08800
H1080       H  0.77618923  0.94231505  0.52431377     0.11500
C1081       C  0.79820768  0.16681054  0.59251954    -0.03100
C1082       C  0.79236540  0.18268427  0.60831109    -0.05700
C1083       C  0.80189181  0.19179091  0.62338411    -0.20800
C1084       C  0.81742873  0.18513183  0.62308313     0.25000
C1085       C  0.82339965  0.17036575  0.60679983    -0.18300
C1086       C  0.81386345  0.16123623  0.59174294    -0.08300
C1087       C  0.82677475  0.19342417  0.64025793    -0.18600
C1088       C  0.84039884  0.18180838  0.64444618    -0.23400
C1089       C  0.84883715  0.18835790  0.66266500     0.27000
C1090       C  0.86466454  0.18539462  0.66274251    -0.20100
C1091       C  0.87294173  0.19029891  0.67984479    -0.09800
C1092       C  0.86552179  0.19793683  0.69734778    -0.10300
C1093       C  0.84963198  0.20068676  0.69726811    -0.03300
C1094       C  0.84137599  0.19587254  0.68016239    -0.18400
H1095       H  0.78034004  0.18720574  0.60937456     0.10700
H1096       H  0.79700427  0.20334790  0.63563960     0.10800
H1097       H  0.83536859  0.16572785  0.60549593     0.10500
H1098       H  0.81873528  0.14968018  0.57948374     0.11600
H1099       H  0.82185186  0.20890506  0.65031533     0.11700
H1100       H  0.84565733  0.16669331  0.63446049     0.13600
H1101       H  0.87065028  0.17925243  0.64950536     0.10100
H1102       H  0.88512353  0.18767135  0.67932433     0.12200
H1103       H  0.84347022  0.20645321  0.71040925     0.08800
H1104       H  0.82914124  0.19736131  0.68088115     0.11500
loop_ 
_geom_bond_atom_site_label_1 
_geom_bond_atom_site_label_2 
_geom_bond_distance 
_geom_bond_site_symmetry_2 
_ccdc_geom_bond_type 
C1            C2   1.404       .  A
C1            C6   1.405       .  A
C1         C1081   1.483       .  S
C2            C3   1.403       .  A
C2            H7   1.083       .  S
C3            C4   1.403       .  A
C3         C1057   1.482       .  S
C4            C5   1.403       .  A
C4            H8   1.083       .  S
C5            C6   1.406       .  A
C5         C1033   1.484       .  S
C6            H9   1.083       .  S
C10          C11   1.402       .  A
C10          C15   1.405       .  A
C10        C1009   1.479       .  S
C11          C12   1.401       .  A
C11          H16   1.084       .  S
C12          C13   1.402   1_556  A
C12         C985   1.478       .  S
C13          C14   1.407   1_554  A
C13          H17   1.084       .  S
C14          C15   1.407       .  A
C14         C972   1.485   1_556  S
C15          H18   1.084       .  S
N19          N20   1.319       .  A
N19          C23   1.342       .  A
N19         Cu27   2.059       .  S
N20          C21   1.345       .  A
N20         Cu26   2.072       .  S
C21          C22   1.389       .  A
C21          H24   1.081       .  S
C22          C23   1.386       .  A
C22        C1092   1.484       .  S
C23          H25   1.081       .  S
Cu26         N29   2.073       .  S
Cu27         N37   2.058       .  S
Cu28         N30   2.079       .  S
Cu28         N36   2.078       .  S
N29          N30   1.324       .  A
N29          C33   1.345       .  A
N30          C31   1.344       .  A
C31          C32   1.382       .  A
C31          H34   1.082       .  S
C32          C33   1.382       .  A
C32         C200   1.469       .  S
C33          H35   1.082       .  S
N36          N37   1.319       .  A
N36          C40   1.347       .  A
N37          C38   1.340       .  A
C38          C39   1.386       .  A
C38          H41   1.080       .  S
C39          C40   1.392       .  A
C39        C1020   1.487       .  S
C40          H42   1.081       .  S
C43          C44   1.405       .  A
C43          C48   1.407       .  A
C43         C948   1.484       .  S
C44          C45   1.403       .  A
C44          H49   1.083       .  S
C45          C46   1.404       .  A
C45        C1068   1.483       .  S
C46          C47   1.402       .  A
C46          H50   1.083       .  S
C47          C48   1.403       .  A
C47         C924   1.482       .  S
C48          H51   1.083       .  S
C52          C53   1.405       .  A
C52          C57   1.405       .  A
C52         C889   1.487       .  S
C53          C54   1.405       .  A
C53          H58   1.082       .  S
C54          C55   1.406       .  A
C54         C996   1.490       .  S
C55          C56   1.406       .  A
C55          H59   1.082       .  S
C56          C57   1.407       .  A
C56         C865   1.489       .  S
C57          H60   1.083       .  S
N61          N62   1.320       .  A
N61          C65   1.340       .  A
N61         Cu69   2.060       .  S
N62          C63   1.346       .  A
N62         Cu68   2.073       .  S
C63          C64   1.390       .  A
C63          H66   1.081       .  S
C64          C65   1.386       .  A
C64         C937   1.484       .  S
C65          H67   1.080       .  S
Cu68         N71   2.074       .  S
Cu69         N79   2.061       .  S
Cu70         N72   2.072       .  S
Cu70         N78   2.071       .  S
N71          N72   1.323       .  A
N71          C75   1.344       .  A
N72          C73   1.345       .  A
C73          C74   1.382       .  A
C73          H76   1.082       .  S
C74          C75   1.382       .  A
C74         C242   1.470       .  S
C75          H77   1.082       .  S
N78          N79   1.320       .  A
N78          C82   1.344       .  A
N79          C80   1.342       .  A
C80          C81   1.387       .  A
C80          H83   1.081       .  S
C81          C82   1.388       .  A
C81         C900   1.483       .  S
C82          H84   1.081       .  S
C85          C86   1.409       .  A
C85          C90   1.408       .  A
C85         C841   1.489       .  S
C86          C87   1.405       .  A
C86          H91   1.083       .  S
C87          C88   1.400       .  A
C87         C913   1.481       .  S
C88          C89   1.402       .  A
C88          H92   1.084       .  S
C89          C90   1.404       .  A
C89         C817   1.484       .  S
C90          H93   1.082       .  S
C94          C95   1.405       .  A
C94          C99   1.405       .  A
C94         C804   1.484       .  S
C95          C96   1.406       .  A
C95         H100   1.083       .  S
C96          C97   1.407   1_556  A
C96         C876   1.489   1_556  S
C97          C98   1.405   1_554  A
C97         H101   1.083       .  S
C98          C99   1.404       .  A
C98         C780   1.483   1_556  S
C99         H102   1.084       .  S
N103        N104   1.320       .  A
N103        C107   1.344       .  A
N103       Cu111   2.068       .  S
N104        C105   1.343       .  A
N104       Cu110   2.070       .  S
C105        C106   1.387       .  A
C105        H108   1.081       .  S
C106        C107   1.387       .  A
C106        C793   1.484       .  S
C107        H109   1.081       .  S
Cu110       N113   2.070       .  S
Cu111       N121   2.068       .  S
Cu112       N114   2.078       .  S
Cu112       N120   2.078       .  S
N113        N114   1.323       .  A
N113        C117   1.344       .  A
N114        C115   1.345       .  A
C115        C116   1.384       .  A
C115        H118   1.082       .  S
C116        C117   1.382       .  A
C116        C284   1.471       .  S
C117        H119   1.082       .  S
N120        N121   1.322       .  A
N120        C124   1.346       .  A
N121        C122   1.343       .  A
C122        C123   1.383       .  A
C122        H125   1.082       .  S
C123        C124   1.386       .  A
C123        C852   1.478       .  S
C124        H126   1.082       .  S
C127        C128   1.406       .  A
C127        C132   1.406       .  A
C127        C745   1.486       .  S
C128        C129   1.406       .  A
C128        H133   1.083       .  S
C129        C130   1.405       .  A
C129        C961   1.485       .  S
C130        C131   1.405       .  A
C130        H134   1.083       .  S
C131        C132   1.405       .  A
C131        C769   1.487       .  S
C132        H135   1.083       .  S
C136        C137   1.405       .  A
C136        C141   1.405       .  A
C136        C721   1.480       .  S
C137        C138   1.404       .  A
C137        H142   1.084       .  S
C138        C139   1.401       .  A
C138       C1044   1.483       .  S
C139        C140   1.402       .  A
C139        H143   1.083       .  S
C140        C141   1.403       .  A
C140        C828   1.481       .  S
C141        H144   1.083       .  S
N145        N146   1.320       .  A
N145        C149   1.341       .  A
N145       Cu153   2.065       .  S
N146        C147   1.348       .  A
N146       Cu152   2.076       .  S
C147        C148   1.390       .  A
C147        H150   1.082       .  S
C148        C149   1.387       .  A
C148        C756   1.486       .  S
C149        H151   1.081       .  S
Cu152       N155   2.077       .  S
Cu153       N163   2.065       .  S
Cu154       N156   2.078       .  S
Cu154       N162   2.077       .  S
N155        N156   1.324       .  A
N155        C159   1.344       .  A
N156        C157   1.346       .  A
C157        C158   1.382       .  A
C157        H160   1.082       .  S
C158        C159   1.382       .  A
C158        C326   1.470       .  S
C159        H161   1.082       .  S
N162        N163   1.320       .  A
N162        C166   1.347       .  A
N163        C164   1.341       .  A
C164        C165   1.387       .  A
C164        H167   1.080       .  S
C165        C166   1.391       .  A
C165        C732   1.488       .  S
C166        H168   1.081       .  S
C169        C170   1.405       .  A
C169        C174   1.406       .  A
C169        C697   1.486       .  S
C170        C171   1.404       .  A
C170        H175   1.083       .  S
C171        C172   1.404       .  A
C171        C660   1.482       .  S
C172        C173   1.403       .  A
C172        H176   1.084       .  S
C173        C174   1.403       .  A
C173        C684   1.483       .  S
C174        H177   1.083       .  S
C178        C179   1.406       .  A
C178        C183   1.405       .  A
C178        C636   1.485       .  S
C179        C180   1.405       .  A
C179        H184   1.083       .  S
C180        C181   1.403       .  A
C180        C577   1.486       .  S
C181        C182   1.405       .  A
C181        H185   1.083   1_556  S
C182        C183   1.405       .  A
C182        C601   1.484       .  S
C183        H186   1.083       .  S
N187        N188   1.319       .  A
N187        C191   1.340       .  A
N187       Cu195   2.060       .  S
N188        C189   1.347       .  A
N188       Cu194   2.074       .  S
C189        C190   1.391       .  A
C189        H192   1.081       .  S
C190        C191   1.386       .  A
C190        C625   1.485       .  S
C191        H193   1.081       .  S
Cu194       N197   2.076   1_455  S
Cu195       N205   2.059       .  S
Cu196       N198   2.079   1_455  S
Cu196       N204   2.077       .  S
N197        N198   1.325       .  A
N197        C201   1.344       .  A
N198        C199   1.345       .  A
C199        C200   1.382       .  A
C199        H202   1.082       .  S
C200        C201   1.381       .  A
C201        H203   1.082       .  S
N204        N205   1.320       .  A
N204        C208   1.348       .  A
N205        C206   1.340       .  A
C206        C207   1.384       .  A
C206        H209   1.081       .  S
C207        C208   1.390       .  A
C207        C708   1.483       .  S
C208        H210   1.082       .  S
C211        C212   1.408       .  A
C211        C216   1.406       .  A
C211        C564   1.492       .  S
C212        C213   1.407       .  A
C212        H217   1.083       .  S
C213        C214   1.405       .  A
C213        C540   1.488       .  S
C214        C215   1.403       .  A
C214        H218   1.083       .  S
C215        C216   1.403       .  A
C215        C612   1.482       .  S
C216        H219   1.083       .  S
C220        C221   1.407       .  A
C220        C225   1.405       .  A
C220        C516   1.486       .  S
C221        C222   1.405       .  A
C221        H226   1.083       .  S
C222        C223   1.404       .  A
C222        C481   1.483       .  S
C223        C224   1.403       .  A
C223        H227   1.084       .  S
C224        C225   1.402       .  A
C224        C673   1.481       .  S
C225        H228   1.083       .  S
N229        N230   1.323       .  A
N229        C233   1.345       .  A
N229       Cu237   2.080       .  S
N230        C231   1.345       .  A
N230       Cu236   2.073       .  S
C231        C232   1.385       .  A
C231        H234   1.082       .  S
C232        C233   1.386       .  A
C232        C553   1.481       .  S
C233        H235   1.082       .  S
Cu236       N239   2.073       .  S
Cu237       N247   2.080       .  S
Cu238       N240   2.066       .  S
Cu238       N246   2.066       .  S
N239        N240   1.322       .  A
N239        C243   1.346   1_455  A
N240        C241   1.343   1_455  A
C241        C242   1.382       .  A
C241        H244   1.082       .  S
C242        C243   1.384       .  A
C243        H245   1.082       .  S
N246        N247   1.321       .  A
N246        C250   1.344       .  A
N247        C248   1.346       .  A
C248        C249   1.388       .  A
C248        H251   1.082       .  S
C249        C250   1.384       .  A
C249        C505   1.481       .  S
C250        H252   1.082       .  S
C253        C254   1.406       .  A
C253        C258   1.404       .  A
C253        C468   1.485       .  S
C254        C255   1.407       .  A
C254        H259   1.083       .  S
C255        C256   1.406       .  A
C255        C492   1.487       .  S
C256        C257   1.403       .  A
C256        H260   1.083       .  S
C257        C258   1.401       .  A
C257        C433   1.481       .  S
C258        H261   1.084       .  S
C262        C263   1.406       .  A
C262        C267   1.409       .  A
C262        C409   1.491       .  S
C263        C264   1.405       .  A
C263        H268   1.082       .  S
C264        C265   1.404       .  A
C264        C385   1.488       .  S
C265        C266   1.405       .  A
C265        H269   1.083   1_556  S
C266        C267   1.407       .  A
C266        C529   1.490       .  S
C267        H270   1.083       .  S
N271        N272   1.320       .  A
N271        C275   1.343       .  A
N271       Cu279   2.072       .  S
N272        C273   1.344       .  A
N272       Cu278   2.069       .  S
C273        C274   1.388       .  A
C273        H276   1.081       .  S
C274        C275   1.389       .  A
C274        C457   1.487       .  S
C275        H277   1.081       .  S
Cu278       N281   2.070       .  S
Cu279       N289   2.072       .  S
Cu280       N282   2.077       .  S
Cu280       N288   2.077       .  S
N281        N282   1.322       .  A
N281        C285   1.345       .  A
N282        C283   1.345       .  A
C283        C284   1.384       .  A
C283        H286   1.082       .  S
C284        C285   1.382       .  A
C285        H287   1.082       .  S
N288        N289   1.322       .  A
N288        C292   1.346       .  A
N289        C290   1.343       .  A
C290        C291   1.385       .  A
C290        H293   1.082       .  S
C291        C292   1.386       .  A
C291        C420   1.480       .  S
C292        H294   1.082       .  S
C295        C296   1.404       .  A
C295        C300   1.404       .  A
C295        C361   1.483       .  S
C296        C297   1.405       .  A
C296        H301   1.083       .  S
C297        C298   1.405       .  A
C297        C649   1.485       .  S
C298        C299   1.405       .  A
C298        H302   1.083       .  S
C299        C300   1.405       .  A
C299        C444   1.487       .  S
C300        H303   1.083       .  S
C304        C305   1.406       .  A
C304        C309   1.405       .  A
C304        C337   1.487       .  S
C305        C306   1.405       .  A
C305        H310   1.083       .  S
C306        C307   1.405       .  A
C306        C588   1.485       .  S
C307        C308   1.406       .  A
C307        H311   1.083       .  S
C308        C309   1.404       .  A
C308        C396   1.485       .  S
C309        H312   1.083       .  S
N313        N314   1.321       .  A
N313        C317   1.340       .  A
N313       Cu321   2.062       .  S
N314        C315   1.348       .  A
N314       Cu320   2.081       .  S
C315        C316   1.390       .  A
C315        H318   1.082       .  S
C316        C317   1.384       .  A
C316        C372   1.483       .  S
C317        H319   1.081       .  S
Cu320       N323   2.081       .  S
Cu321       N331   2.062       .  S
Cu322       N324   2.070       .  S
Cu322       N330   2.069       .  S
N323        N324   1.324       .  A
N323        C327   1.346       .  A
N324        C325   1.343       .  A
C325        C326   1.381       .  A
C325        H328   1.082       .  S
C326        C327   1.384       .  A
C327        H329   1.082       .  S
N330        N331   1.319       .  A
N330        C334   1.345       .  A
N331        C332   1.342       .  A
C332        C333   1.387       .  A
C332        H335   1.081       .  S
C333        C334   1.389       .  A
C333        C348   1.484       .  S
C334        H336   1.081       .  S
C337        C338   1.405       .  A
C337        C342   1.406       .  A
C338        C339   1.396       .  A
C338        H351   1.083       .  S
C339        C340   1.403       .  A
C339        H352   1.083       .  S
C340        C341   1.408       .  A
C340        C343   1.485       .  S
C341        C342   1.398       .  A
C341        H353   1.081       .  S
C342        H354   1.083       .  S
C343        C344   1.347       .  D
C343        H355   1.086       .  S
C344        C345   1.485       .  S
C344        H356   1.084       .  S
C345        C346   1.403       .  A
C345        C350   1.406       .  A
C346        C347   1.400       .  A
C346        H357   1.083       .  S
C347        C348   1.407       .  A
C347        H358   1.081       .  S
C348        C349   1.405       .  A
C349        C350   1.394       .  A
C349        H359   1.081       .  S
C350        H360   1.082       .  S
C361        C362   1.406       .  A
C361        C366   1.404       .  A
C362        C363   1.400       .  A
C362        H375   1.083       .  S
C363        C364   1.404       .  A
C363        H376   1.083       .  S
C364        C365   1.408       .  A
C364        C367   1.486       .  S
C365        C366   1.395       .  A
C365        H377   1.082       .  S
C366        H378   1.083       .  S
C367        C368   1.346       .  D
C367        H379   1.085       .  S
C368        C369   1.484       .  S
C368        H380   1.086       .  S
C369        C370   1.401       .  A
C369        C374   1.408       .  A
C370        C371   1.393       .  A
C370        H381   1.084       .  S
C371        C372   1.405       .  A
C371        H382   1.081       .  S
C372        C373   1.406       .  A
C373        C374   1.402       .  A
C373        H383   1.082       .  S
C374        H384   1.081       .  S
C385        C386   1.406   1_556  A
C385        C390   1.406   1_556  A
C386        C387   1.398       .  A
C386        H399   1.083       .  S
C387        C388   1.404       .  A
C387        H400   1.083       .  S
C388        C389   1.408       .  A
C388        C391   1.489       .  S
C389        C390   1.397       .  A
C389        H401   1.081       .  S
C390        H402   1.083   1_554  S
C391        C392   1.349       .  D
C391        H403   1.084       .  S
C392        C393   1.489       .  S
C392        H404   1.084       .  S
C393        C394   1.404       .  A
C393        C398   1.409       .  A
C394        C395   1.397       .  A
C394        H405   1.083       .  S
C395        C396   1.404       .  A
C395        H406   1.083       .  S
C396        C397   1.406       .  A
C397        C398   1.399       .  A
C397        H407   1.083       .  S
C398        H408   1.081       .  S
C409        C410   1.408       .  A
C409        C414   1.407       .  A
C410        C411   1.397       .  A
C410        H423   1.082       .  S
C411        C412   1.401       .  A
C411        H424   1.083       .  S
C412        C413   1.405       .  A
C412        C415   1.482       .  S
C413        C414   1.399       .  A
C413        H425   1.083       .  S
C414        H426   1.083       .  S
C415        C416   1.345       .  D
C415        H427   1.087       .  S
C416        C417   1.481       .  S
C416        H428   1.087       .  S
C417        C418   1.401       .  A
C417        C422   1.406       .  A
C418        C419   1.397       .  A
C418        H429   1.083       .  S
C419        C420   1.405       .  A
C419        H430   1.083       .  S
C420        C421   1.406       .  A
C421        C422   1.400       .  A
C421        H431   1.083       .  S
C422        H432   1.083       .  S
C433        C434   1.404       .  A
C433        C438   1.403       .  A
C434        C435   1.397       .  A
C434        H447   1.083       .  S
C435        C436   1.404       .  A
C435        H448   1.083       .  S
C436        C437   1.409       .  A
C436        C439   1.487       .  S
C437        C438   1.396       .  A
C437        H449   1.080       .  S
C438        H450   1.083       .  S
C439        C440   1.347       .  D
C439        H451   1.086       .  S
C440        C441   1.482       .  S
C440        H452   1.084       .  S
C441        C442   1.402       .  A
C441        C446   1.406       .  A
C442        C443   1.396       .  A
C442        H453   1.084       .  S
C443        C444   1.406       .  A
C443        H454   1.083       .  S
C444        C445   1.407       .  A
C445        C446   1.398       .  A
C445        H455   1.083       .  S
C446        H456   1.082       .  S
C457        C458   1.408       .  A
C457        C462   1.406       .  A
C458        C459   1.399       .  A
C458        H471   1.081       .  S
C459        C460   1.402       .  A
C459        H472   1.083       .  S
C460        C461   1.406       .  A
C460        C463   1.486       .  S
C461        C462   1.396       .  A
C461        H473   1.081       .  S
C462        H474   1.081       .  S
C463        C464   1.349       .  D
C463        H475   1.082       .  S
C464        C465   1.490       .  S
C464        H476   1.085       .  S
C465        C466   1.405       .  A
C465        C470   1.409       .  A
C466        C467   1.397       .  A
C466        H477   1.083       .  S
C467        C468   1.404       .  A
C467        H478   1.083       .  S
C468        C469   1.405       .  A
C469        C470   1.397       .  A
C469        H479   1.083       .  S
C470        H480   1.079       .  S
C481        C482   1.405       .  A
C481        C486   1.404       .  A
C482        C483   1.397       .  A
C482        H495   1.083       .  S
C483        C484   1.404       .  A
C483        H496   1.083       .  S
C484        C485   1.409       .  A
C484        C487   1.487       .  S
C485        C486   1.398       .  A
C485        H497   1.081       .  S
C486        H498   1.083       .  S
C487        C488   1.348       .  D
C487        H499   1.085       .  S
C488        C489   1.486       .  S
C488        H500   1.084       .  S
C489        C490   1.403       .  A
C489        C494   1.408       .  A
C490        C491   1.397       .  A
C490        H501   1.084       .  S
C491        C492   1.406       .  A
C491        H502   1.083       .  S
C492        C493   1.406       .  A
C493        C494   1.399       .  A
C493        H503   1.083       .  S
C494        H504   1.081       .  S
C505        C506   1.406       .  A
C505        C510   1.404       .  A
C506        C507   1.398       .  A
C506        H519   1.082       .  S
C507        C508   1.402       .  A
C507        H520   1.083       .  S
C508        C509   1.406       .  A
C508        C511   1.482       .  S
C509        C510   1.397       .  A
C509        H521   1.082       .  S
C510        H522   1.082       .  S
C511        C512   1.346       .  D
C511        H523   1.087       .  S
C512        C513   1.481       .  S
C512        H524   1.086       .  S
C513        C514   1.403       .  A
C513        C518   1.405       .  A
C514        C515   1.399       .  A
C514        H525   1.083       .  S
C515        C516   1.406       .  A
C515        H526   1.083       .  S
C516        C517   1.407       .  A
C517        C518   1.395       .  A
C517        H527   1.083       .  S
C518        H528   1.082       .  S
C529        C530   1.406       .  A
C529        C534   1.406       .  A
C530        C531   1.400   1_556  A
C530        H543   1.083       .  S
C531        C532   1.405       .  A
C531        H544   1.083       .  S
C532        C533   1.408       .  A
C532        C535   1.491       .  S
C533        C534   1.398   1_554  A
C533        H545   1.081       .  S
C534        H546   1.083       .  S
C535        C536   1.350       .  D
C535        H547   1.084       .  S
C536        C537   1.491       .  S
C536        H548   1.084       .  S
C537        C538   1.405       .  A
C537        C542   1.409       .  A
C538        C539   1.398       .  A
C538        H549   1.083       .  S
C539        C540   1.405       .  A
C539        H550   1.083       .  S
C540        C541   1.406       .  A
C541        C542   1.399       .  A
C541        H551   1.083       .  S
C542        H552   1.080       .  S
C553        C554   1.405       .  A
C553        C558   1.404       .  A
C554        C555   1.399       .  A
C554        H567   1.083       .  S
C555        C556   1.403       .  A
C555        H568   1.083       .  S
C556        C557   1.407       .  A
C556        C559   1.485       .  S
C557        C558   1.398       .  A
C557        H569   1.082       .  S
C558        H570   1.083       .  S
C559        C560   1.347       .  D
C559        H571   1.086       .  S
C560        C561   1.485       .  S
C560        H572   1.086       .  S
C561        C562   1.403       .  A
C561        C566   1.405       .  A
C562        C563   1.400       .  A
C562        H573   1.083       .  S
C563        C564   1.407       .  A
C563        H574   1.082       .  S
C564        C565   1.408       .  A
C565        C566   1.397       .  A
C565        H575   1.082       .  S
C566        H576   1.082       .  S
C577        C578   1.404   1_556  A
C577        C582   1.406       .  A
C578        C579   1.398       .  A
C578        H591   1.083       .  S
C579        C580   1.405       .  A
C579        H592   1.083       .  S
C580        C581   1.408       .  A
C580        C583   1.489       .  S
C581        C582   1.399   1_554  A
C581        H593   1.081       .  S
C582        H594   1.083       .  S
C583        C584   1.349       .  D
C583        H595   1.083       .  S
C584        C585   1.492       .  S
C584        H596   1.084       .  S
C585        C586   1.405       .  A
C585        C590   1.410       .  A
C586        C587   1.399       .  A
C586        H597   1.083       .  S
C587        C588   1.405       .  A
C587        H598   1.083       .  S
C588        C589   1.404       .  A
C589        C590   1.398       .  A
C589        H599   1.083       .  S
C590        H600   1.080       .  S
C601        C602   1.405   1_556  A
C601        C606   1.407       .  A
C602        C603   1.395   1_545  A
C602        H615   1.083       .  S
C603        C604   1.401       .  A
C603        H616   1.083       .  S
C604        C605   1.406   1_554  A
C604        C607   1.480       .  S
C605        C606   1.399   1_565  A
C605        H617   1.082       .  S
C606        H618   1.083       .  S
C607        C608   1.344       .  D
C607        H619   1.087       .  S
C608        C609   1.481       .  S
C608        H620   1.086   1_554  S
C609        C610   1.402       .  A
C609        C614   1.406       .  A
C610        C611   1.398       .  A
C610        H621   1.083       .  S
C611        C612   1.405       .  A
C611        H622   1.083       .  S
C612        C613   1.405       .  A
C613        C614   1.397       .  A
C613        H623   1.083       .  S
C614        H624   1.083       .  S
C625        C626   1.408       .  A
C625        C630   1.406       .  A
C626        C627   1.402       .  A
C626        H639   1.082       .  S
C627        C628   1.403       .  A
C627        H640   1.083       .  S
C628        C629   1.405       .  A
C628        C631   1.485       .  S
C629        C630   1.393       .  A
C629        H641   1.082       .  S
C630        H642   1.081       .  S
C631        C632   1.348       .  D
C631        H643   1.084       .  S
C632        C633   1.486       .  S
C632        H644   1.086       .  S
C633        C634   1.404       .  A
C633        C638   1.408       .  A
C634        C635   1.395       .  A
C634        H645   1.084       .  S
C635        C636   1.403       .  A
C635        H646   1.083       .  S
C636        C637   1.406       .  A
C637        C638   1.400       .  A
C637        H647   1.083       .  S
C638        H648   1.081       .  S
C649        C650   1.405       .  A
C649        C654   1.405       .  A
C650        C651   1.397       .  A
C650        H663   1.083       .  S
C651        C652   1.403       .  A
C651        H664   1.083       .  S
C652        C653   1.407       .  A
C652        C655   1.484       .  S
C653        C654   1.397       .  A
C653        H665   1.081       .  S
C654        H666   1.083       .  S
C655        C656   1.347       .  D
C655        H667   1.085       .  S
C656        C657   1.483       .  S
C656        H668   1.085       .  S
C657        C658   1.403       .  A
C657        C662   1.408       .  A
C658        C659   1.396       .  A
C658        H669   1.083       .  S
C659        C660   1.405       .  A
C659        H670   1.083       .  S
C660        C661   1.405       .  A
C661        C662   1.397       .  A
C661        H671   1.083       .  S
C662        H672   1.081       .  S
C673        C674   1.403       .  A
C673        C678   1.405       .  A
C674        C675   1.395       .  A
C674        H687   1.083       .  S
C675        C676   1.404       .  A
C675        H688   1.084       .  S
C676        C677   1.410       .  A
C676        C679   1.488       .  S
C677        C678   1.399       .  A
C677        H689   1.079       .  S
C678        H690   1.083       .  S
C679        C680   1.347       .  D
C679        H691   1.085       .  S
C680        C681   1.484       .  S
C680        H692   1.083       .  S
C681        C682   1.403   1_565  A
C681        C686   1.407   1_565  A
C682        C683   1.398       .  A
C682        H693   1.083       .  S
C683        C684   1.405       .  A
C683        H694   1.083       .  S
C684        C685   1.405       .  A
C685        C686   1.396       .  A
C685        H695   1.083       .  S
C686        H696   1.082       .  S
C697        C698   1.407       .  A
C697        C702   1.405       .  A
C698        C699   1.399       .  A
C698        H711   1.083       .  S
C699        C700   1.403       .  A
C699        H712   1.083       .  S
C700        C701   1.407       .  A
C700        C703   1.485       .  S
C701        C702   1.395       .  A
C701        H713   1.082       .  S
C702        H714   1.083       .  S
C703        C704   1.346       .  D
C703        H715   1.085       .  S
C704        C705   1.483       .  S
C704        H716   1.086       .  S
C705        C706   1.400       .  A
C705        C710   1.408       .  A
C706        C707   1.393       .  A
C706        H717   1.084       .  S
C707        C708   1.405       .  A
C707        H718   1.081       .  S
C708        C709   1.406       .  A
C709        C710   1.402       .  A
C709        H719   1.082       .  S
C710        H720   1.082       .  S
C721        C722   1.404       .  A
C721        C726   1.405       .  A
C722        C723   1.396       .  A
C722        H735   1.083       .  S
C723        C724   1.402       .  A
C723        H736   1.083       .  S
C724        C725   1.406       .  A
C724        C727   1.481       .  S
C725        C726   1.399       .  A
C725        H737   1.082       .  S
C726        H738   1.083       .  S
C727        C728   1.346       .  D
C727        H739   1.087       .  S
C728        C729   1.483       .  S
C728        H740   1.086       .  S
C729        C730   1.402       .  A
C729        C734   1.404       .  A
C730        C731   1.401       .  A
C730        H741   1.083       .  S
C731        C732   1.408       .  A
C731        H742   1.081       .  S
C732        C733   1.407       .  A
C733        C734   1.395       .  A
C733        H743   1.080       .  S
C734        H744   1.083       .  S
C745        C746   1.407       .  A
C745        C750   1.405       .  A
C746        C747   1.401       .  A
C746        H759   1.083       .  S
C747        C748   1.404       .  A
C747        H760   1.083       .  S
C748        C749   1.407       .  A
C748        C751   1.488       .  S
C749        C750   1.397       .  A
C749        H761   1.082       .  S
C750        H762   1.083       .  S
C751        C752   1.347       .  D
C751        H763   1.085       .  S
C752        C753   1.486       .  S
C752        H764   1.086       .  S
C753        C754   1.401       .  A
C753        C758   1.408       .  A
C754        C755   1.394       .  A
C754        H765   1.084       .  S
C755        C756   1.405       .  A
C755        H766   1.081       .  S
C756        C757   1.407       .  A
C757        C758   1.403       .  A
C757        H767   1.082       .  S
C758        H768   1.082       .  S
C769        C770   1.405       .  A
C769        C774   1.406       .  A
C770        C771   1.398       .  A
C770        H783   1.083       .  S
C771        C772   1.404       .  A
C771        H784   1.083       .  S
C772        C773   1.409       .  A
C772        C775   1.490       .  S
C773        C774   1.400       .  A
C773        H785   1.081       .  S
C774        H786   1.083       .  S
C775        C776   1.350       .  D
C775        H787   1.083       .  S
C776        C777   1.493       .  S
C776        H788   1.084       .  S
C777        C778   1.406       .  A
C777        C782   1.411       .  A
C778        C779   1.399       .  A
C778        H789   1.083       .  S
C779        C780   1.403       .  A
C779        H790   1.083       .  S
C780        C781   1.404   1_554  A
C781        C782   1.399   1_556  A
C781        H791   1.083       .  S
C782        H792   1.080   1_554  S
C793        C794   1.406       .  A
C793        C798   1.406       .  A
C794        C795   1.397       .  A
C794        H807   1.082       .  S
C795        C796   1.403       .  A
C795        H808   1.083       .  S
C796        C797   1.406       .  A
C796        C799   1.484       .  S
C797        C798   1.397       .  A
C797        H809   1.081       .  S
C798        H810   1.081       .  S
C799        C800   1.348       .  D
C799        H811   1.084       .  S
C800        C801   1.487       .  S
C800        H812   1.085       .  S
C801        C802   1.404       .  A
C801        C806   1.408       .  A
C802        C803   1.398       .  A
C802        H813   1.084       .  S
C803        C804   1.405       .  A
C803        H814   1.083       .  S
C804        C805   1.404       .  A
C805        C806   1.397       .  A
C805        H815   1.083       .  S
C806        H816   1.081       .  S
C817        C818   1.406       .  A
C817        C822   1.405       .  A
C818        C819   1.394       .  A
C818        H831   1.083       .  S
C819        C820   1.401       .  A
C819        H832   1.084       .  S
C820        C821   1.408       .  A
C820        C823   1.482       .  S
C821        C822   1.398       .  A
C821        H833   1.081       .  S
C822        H834   1.083       .  S
C823        C824   1.347       .  D
C823        H835   1.084       .  S
C824        C825   1.485       .  S
C824        H836   1.085       .  S
C825        C826   1.405       .  A
C825        C830   1.408       .  A
C826        C827   1.398       .  A
C826        H837   1.083       .  S
C827        C828   1.404       .  A
C827        H838   1.083       .  S
C828        C829   1.405       .  A
C829        C830   1.393       .  A
C829        H839   1.083       .  S
C830        H840   1.080       .  S
C841        C842   1.407       .  A
C841        C846   1.407       .  A
C842        C843   1.400       .  A
C842        H855   1.083       .  S
C843        C844   1.403       .  A
C843        H856   1.083       .  S
C844        C845   1.406       .  A
C844        C847   1.484       .  S
C845        C846   1.396       .  A
C845        H857   1.082       .  S
C846        H858   1.083       .  S
C847        C848   1.347       .  D
C847        H859   1.086       .  S
C848        C849   1.484       .  S
C848        H860   1.086       .  S
C849        C850   1.404       .  A
C849        C854   1.407       .  A
C850        C851   1.398       .  A
C850        H861   1.083       .  S
C851        C852   1.404       .  A
C851        H862   1.083       .  S
C852        C853   1.404       .  A
C853        C854   1.397       .  A
C853        H863   1.083       .  S
C854        H864   1.082       .  S
C865        C866   1.405       .  A
C865        C870   1.406       .  A
C866        C867   1.398       .  A
C866        H879   1.083       .  S
C867        C868   1.405       .  A
C867        H880   1.083       .  S
C868        C869   1.409       .  A
C868        C871   1.491       .  S
C869        C870   1.398       .  A
C869        H881   1.080       .  S
C870        H882   1.083       .  S
C871        C872   1.349       .  D
C871        H883   1.085       .  S
C872        C873   1.488       .  S
C872        H884   1.083       .  S
C873        C874   1.403       .  A
C873        C878   1.408       .  A
C874        C875   1.398       .  A
C874        H885   1.083       .  S
C875        C876   1.406       .  A
C875        H886   1.083       .  S
C876        C877   1.406       .  A
C877        C878   1.399       .  A
C877        H887   1.083       .  S
C878        H888   1.081       .  S
C889        C890   1.404       .  A
C889        C894   1.405       .  A
C890        C891   1.397       .  A
C890        H903   1.083       .  S
C891        C892   1.405       .  A
C891        H904   1.083       .  S
C892        C893   1.409       .  A
C892        C895   1.490       .  S
C893        C894   1.397       .  A
C893        H905   1.079       .  S
C894        H906   1.083       .  S
C895        C896   1.348       .  D
C895        H907   1.086       .  S
C896        C897   1.484       .  S
C896        H908   1.082       .  S
C897        C898   1.402       .  A
C897        C902   1.406       .  A
C898        C899   1.398       .  A
C898        H909   1.083       .  S
C899        C900   1.406       .  A
C899        H910   1.081       .  S
C900        C901   1.406       .  A
C901        C902   1.396       .  A
C901        H911   1.081       .  S
C902        H912   1.082       .  S
C913        C914   1.404       .  A
C913        C918   1.403       .  A
C914        C915   1.397       .  A
C914        H927   1.083       .  S
C915        C916   1.404       .  A
C915        H928   1.083       .  S
C916        C917   1.409       .  A
C916        C919   1.487       .  S
C917        C918   1.399       .  A
C917        H929   1.081       .  S
C918        H930   1.083       .  S
C919        C920   1.348       .  D
C919        H931   1.085       .  S
C920        C921   1.486       .  S
C920        H932   1.084       .  S
C921        C922   1.403       .  A
C921        C926   1.408       .  A
C922        C923   1.398       .  A
C922        H933   1.083       .  S
C923        C924   1.404       .  A
C923        H934   1.083       .  S
C924        C925   1.404       .  A
C925        C926   1.398       .  A
C925        H935   1.083       .  S
C926        H936   1.082       .  S
C937        C938   1.405       .  A
C937        C942   1.407       .  A
C938        C939   1.393       .  A
C938        H951   1.080       .  S
C939        C940   1.402       .  A
C939        H952   1.084       .  S
C940        C941   1.408       .  A
C940        C943   1.485       .  S
C941        C942   1.400       .  A
C941        H953   1.080       .  S
C942        H954   1.081       .  S
C943        C944   1.347       .  D
C943        H955   1.085       .  S
C944        C945   1.485       .  S
C944        H956   1.084       .  S
C945        C946   1.403       .  A
C945        C950   1.407       .  A
C946        C947   1.399       .  A
C946        H957   1.083       .  S
C947        C948   1.407       .  A
C947        H958   1.083       .  S
C948        C949   1.404       .  A
C949        C950   1.394       .  A
C949        H959   1.083       .  S
C950        H960   1.081       .  S
C961        C962   1.404       .  A
C961        C966   1.406       .  A
C962        C963   1.398       .  A
C962        H975   1.083       .  S
C963        C964   1.404       .  A
C963        H976   1.083       .  S
C964        C965   1.408       .  A
C964        C967   1.487       .  S
C965        C966   1.399       .  A
C965        H977   1.081       .  S
C966        H978   1.083       .  S
C967        C968   1.349       .  D
C967        H979   1.084       .  S
C968        C969   1.489       .  S
C968        H980   1.085       .  S
C969        C970   1.405       .  A
C969        C974   1.408       .  A
C970        C971   1.400       .  A
C970        H981   1.083       .  S
C971        C972   1.405       .  A
C971        H982   1.083       .  S
C972        C973   1.405       .  A
C973        C974   1.396       .  A
C973        H983   1.083       .  S
C974        H984   1.080       .  S
C985        C986   1.404       .  A
C985        C990   1.403   1_556  A
C986        C987   1.398   1_556  A
C986        H999   1.083       .  S
C987        C988   1.403       .  A
C987       H1000   1.083       .  S
C988        C989   1.407       .  A
C988        C991   1.482   1_545  S
C989        C990   1.397       .  A
C989       H1001   1.082       .  S
C990       H1002   1.083       .  S
C991        C992   1.345       .  D
C991       H1003   1.086       .  S
C992        C993   1.481       .  S
C992       H1004   1.086       .  S
C993        C994   1.401       .  A
C993        C998   1.406       .  A
C994        C995   1.397       .  A
C994       H1005   1.083       .  S
C995        C996   1.408       .  A
C995       H1006   1.082       .  S
C996        C997   1.407       .  A
C997        C998   1.398       .  A
C997       H1007   1.082       .  S
C998       H1008   1.082       .  S
C1009      C1010   1.403       .  A
C1009      C1014   1.404       .  A
C1010      C1011   1.395       .  A
C1010      H1023   1.083       .  S
C1011      C1012   1.402       .  A
C1011      H1024   1.083       .  S
C1012      C1013   1.408       .  A
C1012      C1015   1.483       .  S
C1013      C1014   1.401       .  A
C1013      H1025   1.082       .  S
C1014      H1026   1.083       .  S
C1015      C1016   1.347       .  D
C1015      H1027   1.086       .  S
C1016      C1017   1.485       .  S
C1016      H1028   1.086       .  S
C1017      C1018   1.403       .  A
C1017      C1022   1.405       .  A
C1018      C1019   1.401       .  A
C1018      H1029   1.083       .  S
C1019      C1020   1.407       .  A
C1019      H1030   1.081       .  S
C1020      C1021   1.408       .  A
C1021      C1022   1.395       .  A
C1021      H1031   1.080       .  S
C1022      H1032   1.082       .  S
C1033      C1034   1.406       .  A
C1033      C1038   1.404       .  A
C1034      C1035   1.396       .  A
C1034      H1047   1.083       .  S
C1035      C1036   1.402       .  A
C1035      H1048   1.084       .  S
C1036      C1037   1.408       .  A
C1036      C1039   1.484       .  S
C1037      C1038   1.396       .  A
C1037      H1049   1.081       .  S
C1038      H1050   1.083       .  S
C1039      C1040   1.346       .  D
C1039      H1051   1.085       .  S
C1040      C1041   1.482       .  S
C1040      H1052   1.084       .  S
C1041      C1042   1.401       .  A
C1041      C1046   1.408       .  A
C1042      C1043   1.394       .  A
C1042      H1053   1.084       .  S
C1043      C1044   1.406       .  A
C1043      H1054   1.083       .  S
C1044      C1045   1.404       .  A
C1045      C1046   1.398       .  A
C1045      H1055   1.083       .  S
C1046      H1056   1.081       .  S
C1057      C1058   1.404       .  A
C1057      C1062   1.405       .  A
C1058      C1059   1.395       .  A
C1058      H1071   1.083       .  S
C1059      C1060   1.402       .  A
C1059      H1072   1.083       .  S
C1060      C1061   1.407       .  A
C1060      C1063   1.482   1_545  S
C1061      C1062   1.398       .  A
C1061      H1073   1.081       .  S
C1062      H1074   1.083       .  S
C1063      C1064   1.347       .  D
C1063      H1075   1.084       .  S
C1064      C1065   1.486       .  S
C1064      H1076   1.085       .  S
C1065      C1066   1.404       .  A
C1065      C1070   1.408       .  A
C1066      C1067   1.398       .  A
C1066      H1077   1.083       .  S
C1067      C1068   1.405       .  A
C1067      H1078   1.083       .  S
C1068      C1069   1.404       .  A
C1069      C1070   1.395       .  A
C1069      H1079   1.083       .  S
C1070      H1080   1.080       .  S
C1081      C1082   1.404       .  A
C1081      C1086   1.405       .  A
C1082      C1083   1.397       .  A
C1082      H1095   1.083       .  S
C1083      C1084   1.404       .  A
C1083      H1096   1.083       .  S
C1084      C1085   1.408       .  A
C1084      C1087   1.487       .  S
C1085      C1086   1.397       .  A
C1085      H1097   1.080       .  S
C1086      H1098   1.083       .  S
C1087      C1088   1.347       .  D
C1087      H1099   1.085       .  S
C1088      C1089   1.483       .  S
C1088      H1100   1.083       .  S
C1089      C1090   1.402       .  A
C1089      C1094   1.406       .  A
C1090      C1091   1.398       .  A
C1090      H1101   1.083       .  S
C1091      C1092   1.406       .  A
C1091      H1102   1.081       .  S
C1092      C1093   1.407       .  A
C1093      C1094   1.396       .  A
C1093      H1103   1.081       .  S
C1094      H1104   1.082       .  S
