geometry optimzed in LAMMPS
_audit_creation_date              2020-11-30 
_audit_creation_method            'lammps2cif' 
_symmetry_space_group_name_H-M    'P1' 
_symmetry_Int_Tables_number       1 
_symmetry_cell_setting            triclinic 
loop_ 
_symmetry_equiv_pos_as_xyz 
  x,y,z 
_cell_length_a                    44.8455849 
_cell_length_b                    45.231310859581896 
_cell_length_c                    38.74075952426709 
_cell_angle_alpha                 90.49291243479826 
_cell_angle_beta                  90.12172668539513 
_cell_angle_gamma                 90.24331471807035 
loop_ 
_atom_site_label 
_atom_site_type_symbol 
_atom_site_fract_x 
_atom_site_fract_y 
_atom_site_fract_z 
_atom_site_charge 
C1          C  0.74814961  0.13394014  0.70443244     0.02000
C2          C  0.73902938  0.10563713  0.71560576     0.02000
C3          C  0.75468873  0.09197346  0.74244387    -0.18500
C4          C  0.77950295  0.10608029  0.75765925     0.02000
C5          C  0.78910611  0.13387782  0.74506731     0.02000
C6          C  0.77307662  0.14769912  0.71897271    -0.18500
H7          H  0.78063302  0.16877700  0.70903278     0.04000
H8          H  0.74776019  0.07033538  0.75123996     0.04000
Zr9        Zr  0.54139074  0.20534136  0.48791719     2.17500
O10         O  0.54146545  0.19683298  0.55002134    -0.51600
O11         O  0.53990241  0.15268125  0.47188753    -0.74800
O12         O  0.49182752  0.19443024  0.50984870    -0.81600
O13         O  0.62553864  0.21888629  0.49107033    -0.83300
O14         O  0.45805235  0.21987785  0.47817458    -0.78900
O15         O  0.58789598  0.19390897  0.51712965    -0.90600
O16         O  0.54408904  0.15063022  0.41348846    -0.76500
O17         O  0.51230661  0.20293163  0.43659963    -0.86000
O18         O  0.57600637  0.20246392  0.44154000    -0.85700
O19         O  0.51288511  0.25038664  0.48747829    -0.72500
O20         O  0.57107999  0.24959430  0.49158970    -0.84600
Zr21       Zr  0.54772689  0.28845300  0.39055313     2.26400
Zr22       Zr  0.48452076  0.24791419  0.43512038     2.06300
Zr23       Zr  0.60483775  0.24694116  0.44428271     2.10000
Zr24       Zr  0.54690520  0.20003776  0.39041140     1.78800
O25         O  0.63828324  0.27990908  0.47608797    -0.93400
O26         O  0.50464215  0.17659279  0.36136476    -0.41200
O27         O  0.57682903  0.24396562  0.39177698    -0.77900
O28         O  0.51796853  0.24416552  0.38729879    -0.96500
O29         O  0.51363322  0.29212602  0.43741022    -0.89800
O30         O  0.57695061  0.29169266  0.44185422    -0.92700
C31         C  0.54154182  0.13840070  0.44306120     1.01100
C32         C  0.61541215  0.20150174  0.51425560     1.14000
C33         C  0.46508102  0.20236103  0.50273103     1.04800
O34         O  0.44760564  0.21685359  0.40598758    -0.94800
O35         O  0.46340179  0.27673791  0.38870307    -0.90600
O36         O  0.50127615  0.30011048  0.36133802    -0.83700
C37         C  0.47355118  0.29353387  0.36491209     1.11400
O38         O  0.54159446  0.29090623  0.55139957    -0.96800
Zr39       Zr  0.54287772  0.29424219  0.48862284     1.88900
O40         O  0.54956275  0.34103596  0.40652734    -0.73500
O41         O  0.44860792  0.28164387  0.46107483    -0.52700
O42         O  0.49942761  0.31855587  0.51354173    -0.97400
O43         O  0.58596926  0.31746756  0.51633732    -0.54600
O44         O  0.54287716  0.34333752  0.46462828    -0.74000
C45         C  0.54638516  0.35541327  0.43508560     0.98400
O46         O  0.54647935  0.30099459  0.32939105    -0.62800
O47         O  0.64458868  0.21598704  0.42142692    -0.57600
O48         O  0.59702780  0.29393575  0.36518937    -0.94300
O49         O  0.63162319  0.27461556  0.40149048    -0.92700
O50         O  0.59110235  0.17469728  0.36906897    -0.93100
O51         O  0.55142878  0.20469254  0.32807784    -0.91800
C52         C  0.62395845  0.28852919  0.37429596     1.17200
H53         H  0.58870109  0.18533330  0.44356873     0.33200
H54         H  0.50700724  0.24330446  0.36578623     0.44000
H55         H  0.59015932  0.30859528  0.44128099     0.37500
H56         H  0.49990782  0.25136730  0.50730797     0.34000
H57         H  0.51243728  0.15750314  0.35261230     0.25800
H58         H  0.42899337  0.27198140  0.45743991     0.31700
H59         H  0.48919231  0.32791989  0.49380866     0.37600
H60         H  0.58398911  0.15480092  0.36195395     0.32100
H61         H  0.64083422  0.21500437  0.39624897     0.31000
H62         H  0.65806927  0.27034544  0.47471905     0.32700
H63         H  0.59661034  0.32814288  0.49784973     0.31600
H64         H  0.56202891  0.22371107  0.32478570     0.35600
H65         H  0.55894691  0.31897055  0.32688856     0.28400
H66         H  0.53222062  0.17712728  0.55321914     0.32600
H67         H  0.54128766  0.31156744  0.56007330     0.35400
H68         H  0.66293977  0.22808553  0.42390374     0.28100
H69         H  0.55756519  0.28507055  0.31737265     0.40900
H70         H  0.45291817  0.21770383  0.38121927     0.31000
H71         H  0.49088591  0.17103910  0.38020857     0.38600
H72         H  0.59923489  0.30082799  0.52229355     0.30500
H73         H  0.45219485  0.28034498  0.48624702     0.30500
H74         H  0.52697310  0.21108947  0.55975270     0.30800
Zr75       Zr  0.55922796  0.45454933  0.39312811     2.17500
O76         O  0.57291353  0.43798028  0.33513858    -0.51600
O77         O  0.55379408  0.40212486  0.40770767    -0.74800
O78         O  0.61281164  0.44678507  0.38536645    -0.81600
O79         O  0.48078406  0.47314104  0.36222376    -0.83300
O80         O  0.63863010  0.47548533  0.42343858    -0.78900
O81         O  0.52247839  0.44736937  0.34753319    -0.90600
O82         O  0.54000205  0.40050993  0.46401824    -0.76500
O83         O  0.57750867  0.45347357  0.45088226    -0.86000
O84         O  0.51641505  0.45033111  0.42917346    -0.85700
O85         O  0.58407113  0.00112723  0.39983603    -0.72500
O86         O  0.52858161  0.99740241  0.38151160    -0.84600
Zr87       Zr  0.53007346  0.03920566  0.48501653     2.26400
Zr88       Zr  0.60235372  0.49993699  0.45976521     2.06300
Zr89       Zr  0.48733216  0.49365771  0.41958616     2.10000
Zr90       Zr  0.53466284  0.45007794  0.48678876     1.78800
O91         O  0.45099736  0.02340660  0.38697505    -0.93400
O92         O  0.57081381  0.42719420  0.52517653    -0.41200
O93         O  0.50481426  0.49305045  0.47791589    -0.77900
O94         O  0.56033081  0.49573984  0.49735718    -0.96500
O95         O  0.57222679  0.04373151  0.44822945    -0.89800
O96         O  0.51103055  0.03965794  0.42744620    -0.92700
C97         C  0.54676786  0.38806670  0.43524877     1.01100
C98         C  0.49606600  0.45690292  0.34162349     1.14000
C99         C  0.63725942  0.45700820  0.39822088     1.04800
O100        O  0.62938760  0.46743514  0.49851604    -0.94800
O101        O  0.61178440  0.02985148  0.50975174    -0.90600
O102        O  0.56868929  0.05153537  0.52743283    -0.83700
C103        C  0.59658643  0.04574888  0.53086696     1.11400
O104        O  0.56601625  0.04130604  0.32974868    -0.96800
Zr105      Zr  0.55338977  0.04363236  0.39092511     1.88900
O106        O  0.53329890  0.09162028  0.46996692    -0.73500
O107        O  0.64137377  0.03595970  0.44678363    -0.52700
O108        O  0.60101317  0.06690049  0.37727531    -0.97400
O109        O  0.51506868  0.06539406  0.35443506    -0.54600
O110        O  0.54882829  0.09324916  0.41424963    -0.74000
C111        C  0.54112999  0.10569422  0.44273544     0.98400
O112        O  0.51626360  0.05250452  0.54402524    -0.62800
O113        O  0.44912313  0.45598716  0.42863981    -0.57600
O114        O  0.47659983  0.04552195  0.49383322    -0.94300
O115        O  0.45132030  0.01284197  0.45963916    -0.92700
O116        O  0.48602764  0.42789719  0.49766862    -0.93100
O117        O  0.52163143  0.45095031  0.54780848    -0.91800
C118        C  0.45265759  0.03235313  0.48370981     1.17200
H119        H  0.50499282  0.43274335  0.42372027     0.33200
H120        H  0.56682288  0.49544985  0.52117052     0.44000
H121        H  0.49738869  0.05587064  0.42426205     0.37500
H122        H  0.60045747  0.00275971  0.38381215     0.34000
H123        H  0.56225505  0.40753811  0.53049205     0.25800
H124        H  0.65954823  0.02679428  0.45642772     0.31700
H125        H  0.60732295  0.07692291  0.39892028     0.37600
H126        H  0.47281620  0.44476844  0.50321505     0.32100
H127        H  0.43047247  0.46493295  0.41997279     0.31000
H128        H  0.43201813  0.01215534  0.38770141     0.32700
H129        H  0.50585295  0.08118656  0.36862257     0.31600
H130        H  0.52419578  0.47185871  0.55503568     0.35600
H131        H  0.50548655  0.07153645  0.54250190     0.28400
H132        H  0.58355405  0.41902470  0.33809490     0.32600
H133        H  0.56606959  0.06204383  0.32173239     0.35400
H134        H  0.45352349  0.44001193  0.41181184     0.28100
H135        H  0.50116712  0.03783017  0.55134919     0.40900
H136        H  0.62192389  0.47243868  0.52187489     0.31000
H137        H  0.58821708  0.42277364  0.51036613     0.38600
H138        H  0.49945995  0.04992552  0.35246205     0.30500
H139        H  0.64422934  0.03515359  0.42145224     0.30500
H140        H  0.58818490  0.45212249  0.32688338     0.30800
C141        C  0.28428107  0.09543706  0.63152343     0.02000
C142        C  0.29123535  0.12550263  0.63828650     0.02000
C143        C  0.27429359  0.14151332  0.66217901    -0.18500
C144        C  0.25005303  0.12819625  0.67853924     0.02000
C145        C  0.24203877  0.09877215  0.67007764     0.02000
C146        C  0.25957284  0.08238817  0.64721595    -0.18500
H147        H  0.25440157  0.05929846  0.64225258     0.04000
H148        H  0.27994460  0.16433797  0.66805516     0.04000
Zr149      Zr  0.04513447  0.20979008  0.89027713     2.17500
O150        O  0.04160804  0.19376591  0.83002446    -0.51600
O151        O  0.04540434  0.15782864  0.90755821    -0.74800
O152        O  0.09335600  0.19982316  0.86345727    -0.81600
O153        O  0.96093765  0.22023566  0.89866585    -0.83300
O154        O  0.12918807  0.22934870  0.88751358    -0.78900
O155        O  0.99644183  0.19889659  0.86487585    -0.90600
O156        O  0.04816485  0.15716569  0.96608105    -0.76500
O157        O  0.07954349  0.20995283  0.93724783    -0.86000
O158        O  0.01565826  0.20713056  0.94126732    -0.85700
O159        O  0.07243640  0.25569227  0.88612837    -0.72500
O160        O  0.01394366  0.25295688  0.88967752    -0.84600
Zr161      Zr  0.04641259  0.29585025  0.98605957     2.26400
Zr162      Zr  0.10596876  0.25608723  0.93451667     2.06300
Zr163      Zr  0.98551628  0.25058033  0.94163614     2.10000
Zr164      Zr  0.05005755  0.20743530  0.98799367     1.78800
O165        O  0.94752234  0.28167305  0.91562287    -0.93400
O166        O  0.09572057  0.18457407  0.00873075    -0.41200
O167        O  0.01903115  0.25030255  0.98949244    -0.77900
O168        O  0.07766597  0.25281203  0.98667247    -0.96500
O169        O  0.07541976  0.29909960  0.93489820    -0.89800
O170        O  0.01222234  0.29615824  0.93886197    -0.92700
C171        C  0.04654864  0.14423517  0.93653546     1.01100
C172        C  0.96921713  0.20422714  0.87305754     1.14000
C173        C  0.12009792  0.20998585  0.86552618     1.04800
O174        O  0.14493219  0.22606809  0.96018925    -0.94800
O175        O  0.13076264  0.28734831  0.97718777    -0.90600
O176        O  0.09508916  0.31073944  0.00876526    -0.83700
C177        C  0.12240198  0.30487173  0.00152974     1.11400
O178        O  0.03925001  0.29097076  0.82541599    -0.96800
Zr179      Zr  0.04138977  0.29846174  0.88781947     1.88900
O180        O  0.04452858  0.34758751  0.96928572    -0.73500
O181        O  0.13956042  0.29063515  0.90617747    -0.52700
O182        O  0.08300519  0.32267341  0.85902461    -0.97400
O183        O  0.99665270  0.32061445  0.86342942    -0.54600
O184        O  0.04170041  0.34848517  0.91067058    -0.74000
C185        C  0.04293691  0.36120110  0.94039697     0.98400
O186        O  0.04470279  0.30641922  0.04788905    -0.62800
O187        O  0.94927542  0.22062104  0.97263986    -0.57600
O188        O  0.99932102  0.30540067  0.01480899    -0.94300
O189        O  0.96328713  0.27770949  0.98870638    -0.92700
O190        O  0.01027051  0.18436265  0.02099727    -0.93100
O191        O  0.05464858  0.21296656  0.05034186    -0.91800
C192        C  0.97232896  0.29613190  0.01180275     1.17200
H193        H  0.00321732  0.18962514  0.94128914     0.33200
H194        H  0.09063679  0.25318843  0.00658481     0.44000
H195        H  0.99870253  0.31270931  0.94059939     0.37500
H196        H  0.08325744  0.25648299  0.86464964     0.34000
H197        H  0.08887496  0.16758097  0.02262241     0.25800
H198        H  0.15849948  0.27974764  0.90322443     0.31700
H199        H  0.07481332  0.34152778  0.85041751     0.37600
H200        H  0.99296105  0.19761957  0.01807006     0.32100
H201        H  0.93013581  0.22382406  0.96048537     0.31000
H202        H  0.92872363  0.27029623  0.91789192     0.32700
H203        H  0.98807963  0.33280706  0.88225747     0.31600
H204        H  0.04808984  0.23347449  0.05516168     0.35600
H205        H  0.06098460  0.29473776  0.05828535     0.28400
H206        H  0.05219337  0.17462167  0.82858095     0.32600
H207        H  0.03668887  0.31085692  0.81536937     0.35400
H208        H  0.95455428  0.19985924  0.96729428     0.28100
H209        H  0.05104870  0.32732351  0.05048553     0.40900
H210        H  0.13904605  0.22417981  0.98468893     0.31000
H211        H  0.10481056  0.17542452  0.98798447     0.38600
H212        H  0.98249486  0.30391457  0.86058614     0.30500
H213        H  0.13148784  0.29260263  0.88252264     0.30500
H214        H  0.05401242  0.20780231  0.81673856     0.30800
Zr215      Zr  0.03175849  0.04509634  0.89290278     2.17500
O216        O  0.02121763  0.07001675  0.83859996    -0.51600
O217        O  0.03958320  0.09722223  0.90895283    -0.74800
O218        O  0.97788445  0.05237044  0.88363159    -0.81600
O219        O  0.10803498  0.01856384  0.86071731    -0.83300
O220        O  0.95154000  0.03128918  0.92693369    -0.78900
O221        O  0.06730966  0.04506165  0.84497341    -0.90600
O222        O  0.05193269  0.09937927  0.96573135    -0.76500
O223        O  0.01479047  0.04835639  0.95098855    -0.86000
O224        O  0.07544147  0.04696084  0.92837179    -0.85700
O225        O  0.00235947  0.50028045  0.90022362    -0.72500
O226        O  0.05823568  0.49966496  0.88217999    -0.84600
Zr227      Zr  0.05399454  0.45982149  0.98557330     2.26400
Zr228      Zr  0.98562986  0.50343539  0.95882144     2.06300
Zr229      Zr  0.10067970  0.50081022  0.91936036     2.10000
Zr230      Zr  0.05825224  0.04953771  0.98636243     1.78800
O231        O  0.13172934  0.46697648  0.88601703    -0.93400
O232        O  0.02519663  0.07336902  0.02786425    -0.41200
O233        O  0.08463787  0.00429779  0.97721950    -0.77900
O234        O  0.02925517  0.00613521  0.99796656    -0.96500
O235        O  0.01156267  0.45819056  0.94868483    -0.89800
O236        O  0.07248217  0.45666414  0.92807780    -0.92700
C237        C  0.04599192  0.11155479  0.93681824     1.01100
C238        C  0.09318183  0.03391693  0.83907603     1.14000
C239        C  0.95321686  0.04611594  0.89904827     1.04800
O240        O  0.96161728  0.03716266  0.00047821    -0.94800
O241        O  0.97189659  0.47395787  0.00772697    -0.90600
O242        O  0.01367899  0.45056366  0.02635698    -0.83700
C243        C  0.98606962  0.45764034  0.02895284     1.11400
O244        O  0.01222506  0.45906428  0.83194382    -0.96800
Zr245      Zr  0.02998178  0.45572380  0.89130326     1.88900
O246        O  0.04876717  0.40777858  0.96872218    -0.73500
O247        O  0.94166855  0.47356327  0.94547267    -0.52700
O248        O  0.98265364  0.43012656  0.88221772    -0.97400
O249        O  0.06638249  0.43584310  0.85069668    -0.54600
O250        O  0.03584299  0.40598621  0.91196402    -0.74000
C251        C  0.04241103  0.39371394  0.94063956     0.98400
O252        O  0.07137156  0.44637076  0.04307094    -0.62800
O253        O  0.14116966  0.03721874  0.92661102    -0.57600
O254        O  0.10648322  0.45089910  0.99738980    -0.94300
O255        O  0.13412665  0.47487112  0.95740844    -0.92700
O256        O  0.10761949  0.07149368  0.99396600    -0.93100
O257        O  0.07659565  0.04642214  0.04542652    -0.91800
C258        C  0.13156323  0.45858344  0.98417214     1.17200
H259        H  0.08797803  0.06363418  0.92264995     0.33200
H260        H  0.02302875  0.00740398  0.02172961     0.44000
H261        H  0.08491614  0.43946116  0.92475705     0.37500
H262        H  0.98574864  0.49902365  0.88435399     0.34000
H263        H  0.03549047  0.09200945  0.03439698     0.25800
H264        H  0.92460511  0.48514611  0.95435481     0.31700
H265        H  0.97588208  0.42459680  0.90560814     0.37600
H266        H  0.10491630  0.09302051  0.99083038     0.32100
H267        H  0.14685125  0.03566516  0.95123634     0.31000
H268        H  0.15201759  0.47567918  0.88691321     0.32700
H269        H  0.07438427  0.41788796  0.86177323     0.31600
H270        H  0.06787974  0.02786993  0.05440483     0.35600
H271        H  0.06309294  0.46153947  0.05893550     0.28400
H272        H  0.01119101  0.08870548  0.84512115     0.32600
H273        H  0.01153360  0.43845111  0.82313259     0.35400
H274        H  0.15829261  0.02877854  0.91386740     0.28100
H275        H  0.06100600  0.42774175  0.04901481     0.40900
H276        H  0.94186730  0.02790799  0.00430871     0.31000
H277        H  0.00781624  0.07977719  0.01405905     0.38600
H278        H  0.08312445  0.45013358  0.85145297     0.30500
H279        H  0.93962993  0.47421448  0.92002426     0.30500
H280        H  0.00570176  0.05800471  0.82677317     0.30800
C281        C  0.33803235  0.37773979  0.18249235     0.02000
C282        C  0.34753396  0.40539297  0.16933451     0.02000
C283        C  0.33021951  0.41972761  0.14451450    -0.18500
C284        C  0.30394107  0.40665654  0.13223481     0.02000
C285        C  0.29470324  0.37884354  0.14472115     0.02000
C286        C  0.31194352  0.36446887  0.16956259    -0.18500
H287        H  0.30485055  0.34313383  0.17916812     0.04000
H288        H  0.33729488  0.44095363  0.13456721     0.04000
C289        C  0.80660798  0.39388514  0.25313454     0.02000
C290        C  0.79682810  0.36596346  0.24079114     0.02000
C291        C  0.81268680  0.35175784  0.21460875    -0.18500
C292        C  0.83746314  0.36539930  0.19986939     0.02000
C293        C  0.84733083  0.39335865  0.21209323     0.02000
C294        C  0.83204155  0.40717074  0.23912780    -0.18500
H295        H  0.83929530  0.42869350  0.24848438     0.04000
H296        H  0.80513702  0.33045198  0.20486537     0.04000
C297        C  0.87204011  0.40900622  0.19464158    -0.20100
C298        C  0.86630075  0.43419280  0.17467323     0.36100
C299        C  0.88764246  0.44376167  0.15087109    -0.26100
C300        C  0.91431670  0.42813699  0.14638318     0.02500
C301        C  0.92128916  0.40465247  0.16858881     0.27300
C302        C  0.90018765  0.39566876  0.19307379    -0.25200
N303        N  0.83812701  0.44887995  0.17693905    -0.82600
H304        H  0.88260220  0.46228691  0.13431233     0.13200
C305        C  0.93319636  0.43467737  0.11624570     0.02500
N306        N  0.94875013  0.38873833  0.16452198    -0.81200
H307        H  0.90479545  0.37681391  0.20925065     0.18000
C308        C  0.96110094  0.44811159  0.12118741    -0.26000
C309        C  0.97944562  0.45466949  0.09292284     0.36000
C310        C  0.96941382  0.44773491  0.05928067    -0.20000
C311        C  0.94164381  0.43405600  0.05438878    -0.25300
C312        C  0.92351550  0.42710667  0.08262020     0.27400
H313        H  0.96831211  0.45389462  0.14709894     0.13100
N314        N  0.00772621  0.46915074  0.09812396    -0.82600
H315        H  0.93404939  0.42897345  0.02841626     0.18000
N316        N  0.89568251  0.41179915  0.07736788    -0.81200
H317        H  0.01182316  0.47251627  0.12444827     0.33600
H318        H  0.00643641  0.49011179  0.08705921     0.38100
H319        H  0.89288072  0.40611685  0.05134618     0.33600
H320        H  0.87846836  0.42641490  0.08346824     0.30300
H321        H  0.94961714  0.37100160  0.18161367     0.33600
H322        H  0.96615318  0.40301544  0.17154792     0.30300
H323        H  0.82816753  0.44838679  0.15252037     0.38200
H324        H  0.84213258  0.47098689  0.18363158     0.33600
C325        C  0.15958844  0.44962735  0.00177765    -0.20100
C326        C  0.16000979  0.42831315  0.02838094     0.36100
C327        C  0.18625688  0.42429623  0.04755875    -0.26100
C328        C  0.21224827  0.44016093  0.03986665     0.02500
C329        C  0.21267701  0.45965139  0.01190121     0.27300
C330        C  0.18633346  0.46435083  0.99323319    -0.25200
N331        N  0.13400242  0.41083111  0.03588935    -0.82600
H332        H  0.18652386  0.40873712  0.06867508     0.13200
C333        C  0.23871374  0.43637953  0.06189064     0.02500
N334        N  0.23972767  0.47496779  0.00305521    -0.81200
H335        H  0.18660591  0.48037126  0.97261661     0.18000
C336        C  0.26311506  0.42049583  0.04920137    -0.26000
C337        C  0.28684187  0.41312334  0.07091788     0.36000
C338        C  0.28581812  0.42181239  0.10606576    -0.20000
C339        C  0.26277754  0.44012083  0.11780574    -0.25300
C340        C  0.23902802  0.44743906  0.09595905     0.27400
H341        H  0.26309569  0.41270019  0.02266785     0.13100
N342        N  0.31105425  0.39620143  0.05676185    -0.82600
H343        H  0.26224037  0.44683973  0.14472232     0.18000
N344        N  0.21466502  0.46506777  0.10843861    -0.81200
H345        H  0.30258094  0.37571953  0.04867874     0.33600
H346        H  0.32749235  0.39213120  0.07521204     0.38100
H347        H  0.21817135  0.47117431  0.13423141     0.33600
H348        H  0.21449146  0.48463109  0.09426297     0.30300
H349        H  0.23638215  0.48836445  0.98154247     0.33600
H350        H  0.24521305  0.48907288  0.02364617     0.30300
H351        H  0.12968530  0.39748384  0.01426187     0.38200
H352        H  0.13816521  0.39645854  0.05633273     0.33600
C353        C  0.95014105  0.30623210  0.03745914    -0.20100
C354        C  0.95320620  0.33340359  0.05550235     0.36100
C355        C  0.93269500  0.34053505  0.08153162    -0.26100
C356        C  0.90930526  0.32122613  0.08959399     0.02500
C357        C  0.90564533  0.29457552  0.07119471     0.27300
C358        C  0.92596262  0.28743977  0.04504751    -0.25200
N359        N  0.97689810  0.35366675  0.04729454    -0.82600
H360        H  0.93500138  0.36112873  0.09581034     0.13200
C361        C  0.88884137  0.32938932  0.11759004     0.02500
N362        N  0.88142735  0.27489415  0.07928048    -0.81200
H363        H  0.92340050  0.26661633  0.03130212     0.18000
C364        C  0.86566273  0.34896210  0.11008841    -0.26000
C365        C  0.84725884  0.35993418  0.13620240     0.36000
C366        C  0.85215030  0.35074032  0.17052070    -0.20000
C367        C  0.87409253  0.32973195  0.17768213    -0.25300
C368        C  0.89288554  0.31919699  0.15169320     0.27400
H369        H  0.86236472  0.35635884  0.08381846     0.13100
N370        N  0.82420022  0.38044289  0.12701305    -0.82600
H371        H  0.87782445  0.32286609  0.20408286     0.18000
N372        N  0.91645879  0.29937286  0.16120796    -0.81200
H373        H  0.83453770  0.39959767  0.11791211     0.33600
H374        H  0.81133541  0.38662671  0.14827419     0.38100
H375        H  0.90656145  0.27990949  0.17008430     0.33600
H376        H  0.92965887  0.29346248  0.14013306     0.30300
H377        H  0.88162782  0.25641123  0.06288489     0.33600
H378        H  0.88497036  0.26700817  0.10423166     0.30300
H379        H  0.97334926  0.36095890  0.02208983     0.38200
H380        H  0.97601704  0.37242618  0.06323660     0.33600
C381        C  0.26783678  0.36422020  0.13006061    -0.20100
C382        C  0.23894820  0.37342636  0.13939617     0.36100
C383        C  0.21437831  0.36416700  0.11930903    -0.26100
C384        C  0.21826113  0.34564785  0.09035183     0.02500
C385        C  0.24716193  0.33543604  0.08213474     0.27300
C386        C  0.27158471  0.34469437  0.10225389    -0.25200
N387        N  0.23494505  0.39305397  0.16836768    -0.82600
H388        H  0.19227134  0.37210027  0.12560854     0.13200
C389        C  0.19220779  0.33742800  0.06829435     0.02500
N390        N  0.25167194  0.31620424  0.05288960    -0.81200
H391        H  0.29390226  0.33785275  0.09520443     0.18000
C392        C  0.19355592  0.34262830  0.03263213    -0.26000
C393        C  0.17110083  0.33225375  0.01018419     0.36000
C394        C  0.14584368  0.31788723  0.02395196    -0.20000
C395        C  0.14360404  0.31425927  0.05981297    -0.25300
C396        C  0.16683899  0.32323670  0.08207710     0.27400
H397        H  0.21275456  0.35405525  0.02215255     0.13100
N398        N  0.17378411  0.33652659  0.97358718    -0.82600
H399        H  0.12430395  0.30299101  0.07028829     0.18000
N400        N  0.16523676  0.31705003  0.11836820    -0.81200
H401        H  0.19278860  0.34907353  0.96804316     0.33600
H402        H  0.17729996  0.31581261  0.96219544     0.38100
H403        H  0.14516927  0.30639906  0.12427273     0.33600
H404        H  0.18228351  0.30217031  0.12413221     0.30300
H405        H  0.27426975  0.31118556  0.05000560     0.33600
H406        H  0.24063941  0.29629275  0.05786758     0.30300
H407        H  0.24156751  0.38177532  0.19052006     0.38200
H408        H  0.21239327  0.39817985  0.17149942     0.33600
C409        C  0.14160520  0.19953079  0.83977287    -0.20100
C410        C  0.15264269  0.21881467  0.81439687     0.36100
C411        C  0.17157336  0.20768994  0.78868176    -0.26100
C412        C  0.17952167  0.17775424  0.78788948     0.02500
C413        C  0.16910838  0.15858447  0.81406736     0.27300
C414        C  0.15009996  0.16980133  0.83960298    -0.25200
N415        N  0.14353795  0.24925468  0.81398851    -0.82600
H416        H  0.17974086  0.22224298  0.76868891     0.13200
C417        C  0.19793069  0.16718269  0.75880733     0.02500
N418        N  0.17719139  0.12786529  0.81567488    -0.81200
H419        H  0.14167177  0.15512649  0.85932987     0.18000
C420        C  0.22788909  0.16015266  0.76511417    -0.26000
C421        C  0.24591917  0.14859158  0.73872759     0.36000
C422        C  0.23373706  0.14466472  0.70545762    -0.20000
C423        C  0.20453835  0.15359379  0.69861391    -0.25300
C424        C  0.18619346  0.16430645  0.72493474     0.27400
H425        H  0.23689036  0.16294393  0.79092901     0.13100
N426        N  0.27629168  0.14040941  0.74561341    -0.82600
H427        H  0.19554391  0.15104778  0.67279777     0.18000
N428        N  0.15583088  0.17139280  0.71631605    -0.81200
H429        H  0.28183819  0.14500894  0.77133969     0.33600
H430        H  0.27796566  0.11751390  0.74237082     0.38100
H431        H  0.14570460  0.15216335  0.70665439     0.33600
H432        H  0.14351496  0.17760122  0.73796201     0.30300
H433        H  0.15758809  0.11531094  0.81445022     0.33600
H434        H  0.19014185  0.12136211  0.79465284     0.30300
H435        H  0.15263791  0.25959392  0.83582730     0.38200
H436        H  0.15260241  0.26006646  0.79266463     0.33600
C437        C  0.10751268  0.03913346  0.80546661    -0.20100
C438        C  0.12498683  0.01689187  0.78968634     0.36100
C439        C  0.14368224  0.02429605  0.76215098    -0.26100
C440        C  0.14495223  0.05330882  0.74998358     0.02500
C441        C  0.12538106  0.07483951  0.76340204     0.27300
C442        C  0.10672547  0.06748970  0.79115332    -0.25200
N443        N  0.12430551  0.98711762  0.80239321    -0.82600
H444        H  0.15846745  0.00779607  0.75124403     0.13200
C445        C  0.16998258  0.06189018  0.72750996     0.02500
N446        N  0.12543993  0.10430502  0.74974989    -0.81200
H447        H  0.09302511  0.08441215  0.80303214     0.18000
C448        C  0.16443434  0.07264917  0.69431362    -0.26000
C449        C  0.18768092  0.08383960  0.67409331     0.36000
C450        C  0.21704841  0.08404322  0.68763474    -0.20000
C451        C  0.22267298  0.07214680  0.72017639    -0.25300
C452        C  0.19940362  0.06122230  0.74042211     0.27400
H453        H  0.14180685  0.07300779  0.68444574     0.13100
N454        N  0.18059118  0.09505991  0.64044063    -0.82600
H455        H  0.24522565  0.07240647  0.73028436     0.18000
N456        N  0.20536643  0.05022706  0.77446585    -0.81200
H457        H  0.16609292  0.11290284  0.64371395     0.33600
H458        H  0.19946403  0.10315222  0.62789147     0.38100
H459        H  0.22819957  0.05115184  0.77992037     0.33600
H460        H  0.19495486  0.06433037  0.79218716     0.30300
H461        H  0.11032320  0.11766985  0.76313827     0.33600
H462        H  0.14655802  0.11349669  0.75386774     0.30300
H463        H  0.10710715  0.47847669  0.80307548     0.38200
H464        H  0.14346927  0.47537476  0.79377107     0.33600
C465        C  0.66583485  0.44806416  0.38210248    -0.20100
C466        C  0.66942461  0.42018818  0.36589324     0.36100
C467        C  0.69653396  0.41353735  0.34962215    -0.26100
C468        C  0.71983441  0.43419144  0.34881761     0.02500
C469        C  0.71666319  0.46174183  0.36530938     0.27300
C470        C  0.68973794  0.46839339  0.38202329    -0.25200
N471        N  0.64562871  0.39880490  0.36593372    -0.82600
H472        H  0.69947559  0.39235041  0.33700081     0.13200
C473        C  0.74628989  0.42754034  0.32774591     0.02500
N474        N  0.74064419  0.48292036  0.36442413    -0.81200
H475        H  0.68712428  0.48988403  0.39418380     0.18000
C476        C  0.74890707  0.44184742  0.29595197    -0.26000
C477        C  0.77003429  0.43290346  0.27165260     0.36000
C478        C  0.78953293  0.40949950  0.27996632    -0.20000
C479        C  0.78865062  0.39698927  0.31292724    -0.25300
C480        C  0.76682343  0.40524765  0.33674213     0.27400
H481        H  0.73299802  0.45878634  0.28901024     0.13100
N482        N  0.76918064  0.44636809  0.23814198    -0.82600
H483        H  0.80365752  0.37907426  0.31920992     0.18000
N484        N  0.76579211  0.39007658  0.36918076    -0.81200
H485        H  0.77508801  0.46861368  0.24130640     0.33600
H486        H  0.78457331  0.43715293  0.22111953     0.38100
H487        H  0.76057031  0.36792640  0.36398271     0.33600
H488        H  0.74907369  0.39832843  0.38522941     0.30300
H489        H  0.73476464  0.50223324  0.37771936     0.33600
H490        H  0.75872585  0.47385216  0.37766667     0.30300
H491        H  0.64215021  0.39251524  0.39151608     0.38200
H492        H  0.65175470  0.37974012  0.35230149     0.33600
C493        C  0.48217091  0.44952724  0.30848297    -0.20100
C494        C  0.46811153  0.42202572  0.30322191     0.36100
C495        C  0.45057197  0.41769032  0.27358572    -0.26100
C496        C  0.44755555  0.44013511  0.24899511     0.02500
C497        C  0.46276752  0.46715144  0.25358927     0.27300
C498        C  0.47982582  0.47170779  0.28358618    -0.25200
N499        N  0.47030769  0.39939120  0.32892039    -0.82600
H500        H  0.43814463  0.39725008  0.27032701     0.13200
C501        C  0.42516491  0.43618690  0.22138294     0.02500
N502        N  0.45997166  0.49005417  0.22832234    -0.81200
H503        H  0.49061704  0.49288346  0.28811440     0.18000
C504        C  0.39913237  0.45323733  0.22268703    -0.26000
C505        C  0.37417354  0.44550873  0.20260264     0.36000
C506        C  0.37521092  0.41956465  0.18220045    -0.20000
C507        C  0.40240908  0.40482023  0.17769607    -0.25300
C508        C  0.42753898  0.41323498  0.19672865     0.27400
H509        H  0.39770537  0.47152833  0.24085409     0.13100
N510        N  0.34762333  0.46321937  0.20379748    -0.82600
H511        H  0.40366258  0.38578915  0.16057900     0.18000
N512        N  0.45511131  0.39823037  0.19064990    -0.81200
H513        H  0.35079665  0.48164700  0.21988293     0.33600
H514        H  0.33053035  0.45071021  0.21473467     0.38100
H515        H  0.46202474  0.38825009  0.21342434     0.33600
H516        H  0.47111183  0.41403226  0.18393046     0.30300
H517        H  0.47244201  0.50865105  0.23568775     0.33600
H518        H  0.46930978  0.48214007  0.20534130     0.30300
H519        H  0.49254209  0.39257201  0.32981130     0.38200
H520        H  0.45769728  0.38086218  0.32166207     0.33600
C521        C  0.42485321  0.03906324  0.50211257    -0.20100
C522        C  0.41639084  0.06842149  0.50935489     0.36100
C523        C  0.39127932  0.07364806  0.53003655    -0.26100
C524        C  0.37457440  0.05002461  0.54312262     0.02500
C525        C  0.38232516  0.02074205  0.53464820     0.27300
C526        C  0.40725672  0.01549994  0.51399263    -0.25200
N527        N  0.43322083  0.09267048  0.49553637    -0.82600
H528        H  0.38498970  0.09612426  0.53656102     0.13200
C529        C  0.35040232  0.05648901  0.56754982     0.02500
N530        N  0.36583709  0.99606904  0.54769766    -0.81200
H531        H  0.41363241  0.99287812  0.50835307     0.18000
C532        C  0.32119350  0.05859788  0.55492994    -0.26000
C533        C  0.29807929  0.06887558  0.57602994     0.36000
C534        C  0.30464795  0.07713480  0.61055395    -0.20000
C535        C  0.33340334  0.07273953  0.62375801    -0.25300
C536        C  0.35646595  0.06269697  0.60268254     0.27400
H537        H  0.31661411  0.05350388  0.52803920     0.13100
N538        N  0.26889940  0.07200613  0.56104510    -0.82600
H539        H  0.33840534  0.07905530  0.65022060     0.18000
N540        N  0.38581895  0.06036540  0.61748032    -0.81200
H541        H  0.27037221  0.08778519  0.54156159     0.33600
H542        H  0.25342157  0.07991206  0.57887746     0.38100
H543        H  0.38479169  0.04448462  0.63689882     0.33600
H544        H  0.40140645  0.05269172  0.59962175     0.30300
H545        H  0.34369745  0.99797526  0.53953928     0.33600
H546        H  0.36625317  0.99714295  0.57466542     0.30300
H547        H  0.43172419  0.09133393  0.46862923     0.38200
H548        H  0.42348365  0.11276360  0.50264721     0.33600
C549        C  0.64795439  0.29892860  0.35186374    -0.20100
C550        C  0.67082266  0.31719990  0.36508628     0.36100
C551        C  0.69368914  0.32642531  0.34305137    -0.26100
C552        C  0.69417770  0.31741519  0.30836127     0.02500
C553        C  0.67189896  0.29824160  0.29540129     0.27300
C554        C  0.64856256  0.28957780  0.31727601    -0.25200
N555        N  0.67060339  0.32634630  0.40073650    -0.82600
H556        H  0.71133275  0.34059612  0.35293161     0.13200
C557        C  0.71909080  0.32764911  0.28680589     0.02500
N558        N  0.67383644  0.28655192  0.26084631    -0.81200
H559        H  0.63125790  0.27483517  0.30768252     0.18000
C560        C  0.74689302  0.31403211  0.29061952    -0.26000
C561        C  0.77229206  0.32576673  0.27474647     0.36000
C562        C  0.76985644  0.35145619  0.25478973    -0.20000
C563        C  0.74182897  0.36449626  0.24995947    -0.25300
C564        C  0.71646900  0.35300081  0.26600815     0.27400
H565        H  0.74904475  0.29483821  0.30698646     0.13100
N566        N  0.80076258  0.31230764  0.28003223    -0.82600
H567        H  0.73985084  0.38421370  0.23444954     0.18000
N568        N  0.68864044  0.36802804  0.26171418    -0.81200
H569        H  0.80507140  0.31209679  0.30656234     0.33600
H570        H  0.79941925  0.29039894  0.27132880     0.38100
H571        H  0.67335770  0.35357189  0.25014462     0.33600
H572        H  0.68040442  0.37391278  0.28597933     0.30300
H573        H  0.65620979  0.27189458  0.25591822     0.33600
H574        H  0.67131337  0.30396326  0.24361885     0.30300
H575        H  0.65153587  0.33911631  0.40475533     0.38200
H576        H  0.68890058  0.34002920  0.40619663     0.33600
C577        C  0.35480467  0.36285830  0.21044164    -0.20100
C578        C  0.35557538  0.37424622  0.24458786     0.36100
C579        C  0.37502317  0.36182121  0.26864113    -0.26100
C580        C  0.39277116  0.33738591  0.26013168     0.02500
C581        C  0.39008375  0.32436104  0.22681095     0.27300
C582        C  0.37170135  0.33777444  0.20218357    -0.25200
N583        N  0.33643112  0.39771353  0.25609867    -0.82600
H584        H  0.37624906  0.37135282  0.29438324     0.13200
C585        C  0.41355521  0.32617979  0.28679638     0.02500
N586        N  0.40526651  0.29758738  0.21711505    -0.81200
H587        H  0.37067494  0.32859465  0.17626809     0.18000
C588        C  0.40213536  0.31684361  0.31854786    -0.26000
C589        C  0.42098280  0.30613049  0.34461499     0.36000
C590        C  0.45222675  0.30524939  0.33894265    -0.20000
C591        C  0.46349891  0.31532508  0.30725153    -0.25300
C592        C  0.44453604  0.32575658  0.28136353     0.27400
H593        H  0.37826556  0.31749675  0.32277884     0.13100
N594        N  0.40835231  0.29657225  0.37675340    -0.82600
H595        H  0.48724894  0.31495695  0.30222056     0.18000
N596        N  0.45690488  0.33617340  0.24966403    -0.81200
H597        H  0.38567368  0.30175208  0.37791469     0.33600
H598        H  0.40940098  0.27349214  0.37706242     0.38100
H599        H  0.47229923  0.35284667  0.25573711     0.33600
H600        H  0.46863173  0.31876280  0.23818206     0.30300
H601        H  0.38900980  0.28204241  0.20998079     0.33600
H602        H  0.41645766  0.28834549  0.23799711     0.30300
H603        H  0.32128023  0.40384269  0.23702337     0.38200
H604        H  0.34979866  0.41605519  0.26200913     0.33600
C605        C  0.44050352  0.19166321  0.52484211    -0.20100
C606        C  0.44236680  0.16514384  0.54381840     0.36100
C607        C  0.41779491  0.15609145  0.56359715    -0.26100
C608        C  0.39166769  0.17296274  0.56476392     0.02500
C609        C  0.39025508  0.20007654  0.54703628     0.27300
C610        C  0.41454572  0.20888475  0.52713994    -0.25200
N611        N  0.46879759  0.14725993  0.54253431    -0.82600
H612        H  0.41866256  0.13538980  0.57745385     0.13200
C613        C  0.36564147  0.16107402  0.58315932     0.02500
N614        N  0.36452731  0.21899592  0.54813323    -0.81200
H615        H  0.41306410  0.22964450  0.51348048     0.18000
C616        C  0.36558746  0.16200689  0.61933820    -0.26000
C617        C  0.34097362  0.15160977  0.63793314     0.36000
C618        C  0.31608797  0.14020106  0.62002668    -0.20000
C619        C  0.31578699  0.14031708  0.58385159    -0.25300
C620        C  0.34042795  0.15001734  0.56512308     0.27400
H621        H  0.38476093  0.17078978  0.63315004     0.13100
N622        N  0.34153462  0.15209941  0.67488817    -0.82600
H623        H  0.29649162  0.13189543  0.57001632     0.18000
N624        N  0.33920712  0.14766556  0.52808613    -0.81200
H625        H  0.34458430  0.17401398  0.68299814     0.33600
H626        H  0.35997291  0.13992726  0.68306979     0.38100
H627        H  0.32286175  0.16227126  0.51943221     0.33600
H628        H  0.35923864  0.15385113  0.51652721     0.30300
H629        H  0.37119632  0.23914013  0.55917497     0.33600
H630        H  0.34784357  0.21069348  0.56411022     0.30300
H631        H  0.47129047  0.13955592  0.51718656     0.38200
H632        H  0.46640366  0.12858175  0.55801288     0.33600
C633        C  0.79671256  0.09140395  0.78541299    -0.20100
C634        C  0.81289242  0.06535218  0.77850998     0.36100
C635        C  0.83518826  0.05652641  0.80176411    -0.26100
C636        C  0.84207885  0.07379358  0.83095123     0.02500
C637        C  0.82466150  0.09868905  0.83903543     0.27300
C638        C  0.80160496  0.10685887  0.81655891    -0.25200
N639        N  0.80798743  0.04911111  0.74692799    -0.82600
H640        H  0.84866526  0.03730973  0.79589542     0.13200
C641        C  0.86970577  0.06755656  0.85036166     0.02500
N642        N  0.83149917  0.11634187  0.86906100    -0.81200
H643        H  0.78897588  0.12675299  0.82186543     0.18000
C644        C  0.89501405  0.08493157  0.84408154    -0.26000
C645        C  0.92241899  0.07893109  0.86011487     0.36000
C646        C  0.92448515  0.05491296  0.88302349    -0.20000
C647        C  0.89869414  0.03795479  0.88988259    -0.25300
C648        C  0.87138206  0.04396689  0.87358623     0.27400
H649        H  0.89341063  0.10297615  0.82610702     0.13100
N650        N  0.94806839  0.09702345  0.85303439    -0.82600
H651        H  0.89997494  0.01938719  0.90729407     0.18000
N652        N  0.84552491  0.02593481  0.87992863    -0.81200
H653        H  0.94278812  0.11360121  0.83543268     0.33600
H654        H  0.95419330  0.10765618  0.87604649     0.38100
H655        H  0.85053331  0.00923979  0.89748508     0.33600
H656        H  0.82946624  0.03935028  0.89165491     0.30300
H657        H  0.81712650  0.13442848  0.87080106     0.33600
H658        H  0.82753854  0.10331121  0.89074878     0.30300
H659        H  0.81448410  0.06261611  0.72648609     0.38200
H660        H  0.82164743  0.03044924  0.74590828     0.33600
C661        C  0.94542292  0.19203847  0.85099944    -0.20100
C662        C  0.92258632  0.17405070  0.86471317     0.36100
C663        C  0.89887569  0.16518151  0.84362553    -0.26100
C664        C  0.89701088  0.17457148  0.80934015     0.02500
C665        C  0.91941115  0.19291210  0.79561202     0.27300
C666        C  0.94386236  0.20096474  0.81646512    -0.25200
N667        N  0.92283169  0.16464445  0.89993628    -0.82600
H668        H  0.88133265  0.15153713  0.85432330     0.13200
C669        C  0.87045300  0.16627733  0.78901123     0.02500
N670        N  0.91633282  0.20465245  0.76141971    -0.81200
H671        H  0.96100888  0.21542114  0.80632113     0.18000
C672        C  0.84404935  0.18221286  0.79405213    -0.26000
C673        C  0.81730508  0.17303475  0.77831745     0.36000
C674        C  0.81730804  0.14752364  0.75718627    -0.20000
C675        C  0.84405212  0.13245665  0.75089790    -0.25300
C676        C  0.87062631  0.14129556  0.76709497     0.27400
H677        H  0.84417583  0.20122599  0.81127053     0.13100
N678        N  0.78990218  0.18826338  0.78547833    -0.82600
H679        H  0.84376980  0.11280063  0.73471182     0.18000
N680        N  0.89725136  0.12401411  0.76306703    -0.81200
H681        H  0.79358732  0.20564739  0.80294967     0.33600
H682        H  0.78270214  0.19792509  0.76253857     0.38100
H683        H  0.89311113  0.10546609  0.74746111     0.33600
H684        H  0.91301815  0.13680309  0.75012916     0.30300
H685        H  0.93420746  0.21870808  0.75577465     0.33600
H686        H  0.91744426  0.18711803  0.74379685     0.31100
H687        H  0.94311614  0.15420116  0.90490451     0.38200
H688        H  0.92125335  0.18327621  0.91590209     0.33600
C689        C  0.71401570  0.09013596  0.69782077    -0.20100
C690        C  0.71960712  0.06751974  0.67359112     0.36100
C691        C  0.69704406  0.05875054  0.65048339    -0.26100
C692        C  0.66925373  0.07306332  0.65021427     0.02500
C693        C  0.66295490  0.09404383  0.67653177     0.27300
C694        C  0.68521705  0.10191416  0.70029604    -0.25200
N695        N  0.74871261  0.05481952  0.67088118    -0.82600
H696        H  0.70197019  0.04214031  0.63100344     0.13200
C697        C  0.64928465  0.06854003  0.61980608     0.02500
N698        N  0.63497055  0.10908746  0.67865394    -0.81200
H699        H  0.68066877  0.11903593  0.71926844     0.18000
C700        C  0.61991461  0.05836104  0.62405122    -0.26000
C701        C  0.60124917  0.05305365  0.59534996     0.36000
C702        C  0.61266176  0.05686854  0.56172041    -0.20000
C703        C  0.64179294  0.06750786  0.55753904    -0.25300
C704        C  0.66005660  0.07371658  0.58611305     0.27400
H705        H  0.61177627  0.05361796  0.64968633     0.13100
N706        N  0.57140215  0.04223485  0.60022994    -0.82600
H707        H  0.65053229  0.07045786  0.53172242     0.18000
N708        N  0.68977944  0.08480762  0.58104182    -0.81200
H709        H  0.56721868  0.03869672  0.62640957     0.33600
H710        H  0.55695042  0.05907236  0.59273412     0.38100
H711        H  0.69432370  0.08731776  0.55477144     0.33600
H712        H  0.69061618  0.10591211  0.59202926     0.30300
H713        H  0.61823298  0.09372063  0.68399994     0.33600
H714        H  0.63043669  0.11898614  0.65498956     0.30300
H715        H  0.74663681  0.03200000  0.67429150     0.38200
H716        H  0.75655626  0.05841532  0.64585689     0.33600
C717        C  0.73268532  0.14867075  0.67596996    -0.20100
C718        C  0.74028503  0.14218187  0.64155397     0.36100
C719        C  0.72212574  0.15269670  0.61499470    -0.26100
C720        C  0.69616190  0.16847678  0.62260997     0.02500
C721        C  0.68919491  0.17601322  0.65697435     0.27300
C722        C  0.70804800  0.16650042  0.68349357    -0.25200
N723        N  0.76560541  0.12389685  0.63396600    -0.82600
H724        H  0.72741846  0.14749101  0.58834904     0.13200
C725        C  0.67613832  0.17632581  0.59419041     0.02500
N726        N  0.66261609  0.19241355  0.66471729    -0.81200
H727        H  0.70261643  0.17142462  0.71017284     0.18000
C728        C  0.65065812  0.15910441  0.58802539    -0.26000
C729        C  0.63108975  0.16581443  0.56094579     0.36000
C730        C  0.63693676  0.19084989  0.54033212    -0.20000
C731        C  0.66330659  0.20727115  0.54595358    -0.25300
C732        C  0.68298783  0.20015572  0.57267822     0.27400
H733        H  0.64630745  0.14015799  0.60410557     0.13100
N734        N  0.60564734  0.14716831  0.55418065    -0.82600
H735        H  0.66825272  0.22628898  0.53012147     0.18000
N736        N  0.70984598  0.21702910  0.57825437    -0.81200
H737        H  0.60459399  0.12991817  0.57195016     0.33600
H738        H  0.60874620  0.13732861  0.52993346     0.38100
H739        H  0.71189769  0.23361500  0.55977141     0.33600
H740        H  0.70801111  0.22766741  0.60221875     0.30300
H741        H  0.66058252  0.19571907  0.69135467     0.33600
H742        H  0.66492365  0.21334401  0.65377025     0.30300
H743        H  0.78469003  0.13538181  0.64204711     0.38200
H744        H  0.76765732  0.12061261  0.60732895     0.33600
C745        C  0.75053470  0.63742237  0.70200150     0.02000
C746        C  0.74082978  0.60959566  0.71396619     0.02000
C747        C  0.75624789  0.59604076  0.74098684    -0.18500
C748        C  0.78158035  0.60970231  0.75546917     0.02000
C749        C  0.79178027  0.63702022  0.74213269     0.02000
C750        C  0.77591453  0.65076995  0.71587758    -0.18500
H751        H  0.78391769  0.67145659  0.70531181     0.04000
H752        H  0.74889999  0.57468704  0.75027059     0.04000
Zr753      Zr  0.54139638  0.70483413  0.48823806     2.17500
O754        O  0.54302156  0.69292101  0.54959765    -0.51600
O755        O  0.54024456  0.65238570  0.47262963    -0.74800
O756        O  0.49245746  0.69398090  0.51226134    -0.81600
O757        O  0.62511348  0.72000271  0.49015753    -0.83300
O758        O  0.45839439  0.71859998  0.48021174    -0.78900
O759        O  0.58823165  0.69479579  0.51728832    -0.90600
O760        O  0.54328162  0.65029648  0.41415822    -0.76500
O761        O  0.51165977  0.70184824  0.43729407    -0.86000
O762        O  0.57526082  0.70167405  0.44099426    -0.85700
O763        O  0.51283101  0.74983984  0.48835295    -0.72500
O764        O  0.57135470  0.74895953  0.49049424    -0.84600
Zr765      Zr  0.54627406  0.78838670  0.39111665     2.26400
Zr766      Zr  0.48378385  0.74678609  0.43631466     2.06300
Zr767      Zr  0.60421205  0.74609211  0.44208675     2.10000
Zr768      Zr  0.54561966  0.69954666  0.39032877     1.78800
O769        O  0.64402622  0.77483080  0.46928722    -0.93400
O770        O  0.50396248  0.67692418  0.35932492    -0.41200
O771        O  0.57519161  0.74377249  0.39040659    -0.77900
O772        O  0.51673100  0.74384390  0.38792954    -0.96500
O773        O  0.51275198  0.79131593  0.43855901    -0.89800
O774        O  0.57656078  0.79109858  0.44149327    -0.92700
C775        C  0.54150515  0.63812431  0.44386439     1.01100
C776        C  0.61552755  0.70289938  0.51390384     1.14000
C777        C  0.46561763  0.70153638  0.50511155     1.04800
O778        O  0.44896885  0.71328960  0.40728123    -0.94800
O779        O  0.46206329  0.77609141  0.39044912    -0.90600
O780        O  0.49941896  0.80123012  0.36425482    -0.83700
C781        C  0.47190331  0.79390512  0.36747490     1.11400
O782        O  0.54321186  0.79124555  0.55165771    -0.96800
Zr783      Zr  0.54313949  0.79357627  0.48881992     1.88900
O784        O  0.54944463  0.84088361  0.40735236    -0.73500
O785        O  0.44381042  0.77684161  0.46037993    -0.52700
O786        O  0.49913914  0.81711320  0.51335963    -0.97400
O787        O  0.58771411  0.81452323  0.51580034    -0.54600
O788        O  0.54375688  0.84313576  0.46557425    -0.74000
C789        C  0.54692344  0.85528315  0.43597465     0.98400
O790        O  0.54271222  0.80114702  0.33015732    -0.62800
O791        O  0.63885047  0.71124583  0.41588460    -0.57600
O792        O  0.59462710  0.79532452  0.36420136    -0.94300
O793        O  0.62980098  0.77485364  0.39886076    -0.92700
O794        O  0.59075209  0.67575833  0.36923876    -0.93100
O795        O  0.54981654  0.70094393  0.32773731    -0.91800
C796        C  0.62168849  0.78960842  0.37239112     1.17200
H797        H  0.58794360  0.68454064  0.44288161     0.33200
H798        H  0.50553478  0.74320301  0.36662974     0.44000
H799        H  0.58990070  0.80791015  0.44093945     0.37500
H800        H  0.50009982  0.75089194  0.50838603     0.34000
H801        H  0.51190094  0.65801852  0.35020696     0.25800
H802        H  0.42559915  0.76458412  0.45767233     0.31700
H803        H  0.48851767  0.82561230  0.49335508     0.37600
H804        H  0.58529168  0.65466820  0.36615378     0.32100
H805        H  0.63685997  0.71439860  0.39073199     0.31000
H806        H  0.66271071  0.76546604  0.46122081     0.32700
H807        H  0.59542281  0.82921592  0.49922231     0.31600
H808        H  0.55718130  0.72113807  0.32280880     0.35600
H809        H  0.55368020  0.82005316  0.32762554     0.28400
H810        H  0.53449534  0.67276197  0.55147671     0.32600
H811        H  0.54194010  0.81202089  0.55979511     0.35400
H812        H  0.65887374  0.71913203  0.42174847     0.28100
H813        H  0.55475652  0.78626065  0.31759197     0.40900
H814        H  0.44816732  0.71995871  0.38303131     0.31000
H815        H  0.48979436  0.67096000  0.37757311     0.38600
H816        H  0.60245794  0.79830329  0.51512079     0.30500
H817        H  0.44764953  0.77735672  0.48557002     0.30500
H818        H  0.52841457  0.70609245  0.56104074     0.30800
Zr819      Zr  0.55840100  0.95445655  0.39242738     2.17500
O820        O  0.57260920  0.93553420  0.33554794    -0.51600
O821        O  0.55352923  0.90203004  0.40806608    -0.74800
O822        O  0.61196434  0.94735848  0.38494019    -0.81600
O823        O  0.47954133  0.97223267  0.36115483    -0.83300
O824        O  0.63782775  0.97608875  0.42292457    -0.78900
O825        O  0.52234223  0.94870862  0.34565901    -0.90600
O826        O  0.54060361  0.90057796  0.46464818    -0.76500
O827        O  0.57673094  0.95412658  0.45015009    -0.86000
O828        O  0.51560454  0.94992064  0.42848380    -0.85700
O829        O  0.58505167  0.50096809  0.40108736    -0.72500
O830        O  0.52963253  0.49771910  0.38253617    -0.84600
Zr831      Zr  0.53077455  0.53906117  0.48646555     2.26400
Zr832      Zr  0.60150064  0.00069062  0.45840321     2.06300
Zr833      Zr  0.48635992  0.99305801  0.41849015     2.10000
Zr834      Zr  0.53400714  0.95037031  0.48613885     1.78800
O835        O  0.45259857  0.52480236  0.38817669    -0.93400
O836        O  0.56900179  0.92703481  0.52554441    -0.41200
O837        O  0.50401511  0.99310737  0.47678593    -0.77900
O838        O  0.55973141  0.99603670  0.49623363    -0.96500
O839        O  0.57320100  0.54325465  0.44996016    -0.89800
O840        O  0.51213168  0.54010011  0.42883993    -0.92700
C841        C  0.54718932  0.88801841  0.43591319     1.01100
C842        C  0.49544055  0.95704247  0.34007361     1.14000
C843        C  0.63636520  0.95759741  0.39779628     1.04800
O844        O  0.63210882  0.96890769  0.49429324    -0.94800
O845        O  0.61251223  0.53068157  0.51001899    -0.90600
O846        O  0.56935337  0.55176025  0.52850577    -0.83700
C847        C  0.59738761  0.54653333  0.53127823     1.11400
O848        O  0.56851646  0.54529407  0.33174322    -0.96800
Zr849      Zr  0.55471081  0.54367565  0.39254332     1.88900
O850        O  0.53386191  0.59145704  0.47116226    -0.73500
O851        O  0.64514866  0.53224906  0.45030634    -0.52700
O852        O  0.60355110  0.56539639  0.38149866    -0.97400
O853        O  0.51691335  0.56446653  0.35454659    -0.54600
O854        O  0.54952394  0.59312533  0.41549917    -0.74000
C855        C  0.54158465  0.60551077  0.44385669     0.98400
O856        O  0.51725783  0.55205870  0.54567882    -0.62800
O857        O  0.44852447  0.95494124  0.42732330    -0.57600
O858        O  0.47713293  0.54459251  0.49580824    -0.94300
O859        O  0.45152967  0.51365925  0.45972074    -0.92700
O860        O  0.48559040  0.92780874  0.49721322    -0.93100
O861        O  0.52140147  0.95385527  0.54715273    -0.91800
C862        C  0.45302099  0.53228214  0.48473131     1.17200
H863        H  0.50421417  0.93224324  0.42318398     0.33200
H864        H  0.56618973  0.99571191  0.52002109     0.44000
H865        H  0.49860380  0.55641650  0.42557859     0.37500
H866        H  0.60145453  0.50259139  0.38512543     0.34000
H867        H  0.56013375  0.90745009  0.53054844     0.25800
H868        H  0.66271207  0.52058555  0.45743856     0.31700
H869        H  0.60948697  0.57482634  0.40363679     0.37600
H870        H  0.47247353  0.94449398  0.50375036     0.32100
H871        H  0.42927865  0.96558250  0.42726705     0.31000
H872        H  0.43502400  0.51199327  0.38369674     0.32700
H873        H  0.50911731  0.58200975  0.36697370     0.31600
H874        H  0.51690296  0.97503636  0.55105310     0.35600
H875        H  0.50488022  0.57011115  0.54432739     0.28400
H876        H  0.58295279  0.91658338  0.33969724     0.32600
H877        H  0.57003930  0.56656169  0.32604934     0.35400
H878        H  0.44817251  0.94305963  0.40574736     0.28100
H879        H  0.50359873  0.53625160  0.55354402     0.40900
H880        H  0.62175506  0.96841530  0.51682177     0.31000
H881        H  0.58671435  0.92252676  0.51125723     0.38600
H882        H  0.50029076  0.55000943  0.35489141     0.30500
H883        H  0.64691313  0.53383801  0.42491032     0.30500
H884        H  0.58814538  0.94910854  0.32669179     0.30800
C885        C  0.28382233  0.59512478  0.63203663     0.02000
C886        C  0.29051395  0.62521449  0.63879226     0.02000
C887        C  0.27340585  0.64120703  0.66253189    -0.18500
C888        C  0.24931559  0.62773132  0.67899869     0.02000
C889        C  0.24174647  0.59814104  0.67082524     0.02000
C890        C  0.25930701  0.58186659  0.64786630    -0.18500
H891        H  0.25433886  0.55872182  0.64298795     0.04000
H892        H  0.27900050  0.66404289  0.66842773     0.04000
Zr893      Zr  0.04588499  0.70948263  0.89211131     2.17500
O894        O  0.04271661  0.69612734  0.83102579    -0.51600
O895        O  0.04452089  0.65740796  0.90880129    -0.74800
O896        O  0.09416758  0.69792494  0.86647606    -0.81600
O897        O  0.96166781  0.72142997  0.89825458    -0.83300
O898        O  0.13003947  0.72685964  0.89140108    -0.78900
O899        O  0.99754710  0.69944630  0.86556696    -0.90600
O900        O  0.04810954  0.65660346  0.96726237    -0.76500
O901        O  0.07911994  0.70859689  0.94021908    -0.86000
O902        O  0.01520610  0.70730341  0.94211892    -0.85700
O903        O  0.07416305  0.75483169  0.88889018    -0.72500
O904        O  0.01581492  0.75331589  0.89082201    -0.84600
Zr905      Zr  0.04680950  0.79563979  0.98785300     2.26400
Zr906      Zr  0.10662573  0.75414864  0.93816016     2.06300
Zr907      Zr  0.98605884  0.75134792  0.94171454     2.10000
Zr908      Zr  0.04829513  0.70677682  0.98999698     1.78800
O909        O  0.95019566  0.78269541  0.91238297    -0.93400
O910        O  0.09309601  0.68568587  0.01530602    -0.41200
O911        O  0.01844155  0.75052107  0.99067232    -0.77900
O912        O  0.07696057  0.75168827  0.98953335    -0.96500
O913        O  0.07714155  0.79796869  0.93778881    -0.89800
O914        O  0.01356051  0.79656065  0.93992020    -0.92700
C915        C  0.04598327  0.64373138  0.93770273     1.01100
C916        C  0.97027477  0.70535392  0.87286506     1.14000
C917        C  0.12102098  0.70768115  0.86908921     1.04800
O918        O  0.14526280  0.72380526  0.96405274    -0.94800
O919        O  0.13108408  0.78554206  0.98094317    -0.90600
O920        O  0.09523752  0.80970223  0.01141625    -0.83700
C921        C  0.12255064  0.80349506  0.00476949     1.11400
O922        O  0.04376616  0.79239906  0.82733429    -0.96800
Zr923      Zr  0.04404579  0.79837197  0.88992509     1.88900
O924        O  0.04624800  0.84762013  0.97063730    -0.73500
O925        O  0.14124899  0.78800253  0.91040653    -0.52700
O926        O  0.08700301  0.82307202  0.86452297    -0.97400
O927        O  0.99985397  0.82083580  0.86460832    -0.54600
O928        O  0.04344622  0.84855544  0.91207868    -0.74000
C929        C  0.04465850  0.86132495  0.94174779     0.98400
O930        O  0.04426619  0.80755536  0.04931879    -0.62800
O931        O  0.94775931  0.72213559  0.97036848    -0.57600
O932        O  0.99938739  0.80617050  0.01520052    -0.94300
O933        O  0.96356429  0.77862323  0.98845056    -0.92700
O934        O  0.00636186  0.68234694  0.01793027    -0.93100
O935        O  0.04713298  0.71051913  0.05274910    -0.91800
C936        C  0.97239489  0.79709463  0.01160247     1.17200
H937        H  0.00244195  0.69000606  0.94170148     0.33200
H938        H  0.08954233  0.75187223  0.00980261     0.44000
H939        H  0.00031329  0.81330038  0.94137518     0.37500
H940        H  0.08547698  0.75540229  0.86773412     0.34000
H941        H  0.08589183  0.66853270  0.02868904     0.25800
H942        H  0.16057891  0.77751493  0.91014465     0.31700
H943        H  0.09781131  0.83210824  0.88430854     0.37600
H944        H  0.01314866  0.66187950  0.02214988     0.32100
H945        H  0.92918543  0.72608560  0.95736738     0.31000
H946        H  0.93051613  0.77614582  0.92105830     0.32700
H947        H  0.99006168  0.83165352  0.88376273     0.31600
H948        H  0.05455090  0.73070635  0.05803371     0.35600
H949        H  0.05893275  0.79446431  0.06058784     0.28400
H950        H  0.05287639  0.67682713  0.82856307     0.32600
H951        H  0.04306900  0.81271087  0.81803644     0.35400
H952        H  0.95258695  0.70128577  0.96487855     0.28100
H953        H  0.05265094  0.82775883  0.05179217     0.40900
H954        H  0.13896315  0.72139745  0.98834004     0.31000
H955        H  0.10387041  0.67674547  0.99555941     0.38600
H956        H  0.98631158  0.80400905  0.85950210     0.30500
H957        H  0.13485381  0.78838359  0.88596091     0.30500
H958        H  0.05564958  0.71047004  0.81890547     0.30800
Zr959      Zr  0.03157518  0.54478029  0.89278587     2.17500
O960        O  0.02255194  0.57059230  0.83870947    -0.51600
O961        O  0.03893439  0.59680746  0.90983745    -0.74800
O962        O  0.97825930  0.55197481  0.88137891    -0.81600
O963        O  0.10883279  0.52052773  0.86266760    -0.83300
O964        O  0.95142992  0.53197078  0.92491463    -0.78900
O965        O  0.06689356  0.54417485  0.84507142    -0.90600
O966        O  0.05097924  0.59871176  0.96672718    -0.76500
O967        O  0.01364976  0.54794699  0.95038276    -0.86000
O968        O  0.07477434  0.54634812  0.92903356    -0.85700
O969        O  0.00287407  0.00059880  0.90153412    -0.72500
O970        O  0.05811740  0.99979655  0.88220004    -0.84600
Zr971      Zr  0.05510343  0.96056011  0.98639887     2.26400
Zr972      Zr  0.98683762  0.00390319  0.96047022     2.06300
Zr973      Zr  0.10104228  0.00125853  0.91873054     2.10000
Zr974      Zr  0.05652432  0.54864304  0.98667412     1.78800
O975        O  0.13313879  0.96797337  0.88604366    -0.93400
O976        O  0.02060411  0.56992688  0.02681385    -0.41200
O977        O  0.08335212  0.50369743  0.97739761    -0.77900
O978        O  0.02765174  0.50505230  0.99696918    -0.96500
O979        O  0.01235176  0.95840216  0.95018985    -0.89800
O980        O  0.07294246  0.95722459  0.92866251    -0.92700
C981        C  0.04523662  0.61102438  0.93784221     1.01100
C982        C  0.09343238  0.53444367  0.84020447     1.14000
C983        C  0.95347277  0.54632205  0.89670337     1.04800
O984        O  0.96059520  0.53601109  0.99971366    -0.94800
O985        O  0.97358982  0.97481215  0.00993455    -0.90600
O986        O  0.01581084  0.95256824  0.02893848    -0.83700
C987        C  0.98805984  0.95905724  0.03148634     1.11400
O988        O  0.01039237  0.95676215  0.83388288    -0.96800
Zr989      Zr  0.03013423  0.95582424  0.89252122     1.88900
O990        O  0.04962378  0.90829733  0.96989030    -0.73500
O991        O  0.94367173  0.97250806  0.94861540    -0.52700
O992        O  0.98168707  0.93208237  0.88483489    -0.97400
O993        O  0.06598985  0.93600521  0.85117599    -0.54600
O994        O  0.03753889  0.90610043  0.91295200    -0.74000
C995        C  0.04387796  0.89396765  0.94180173     0.98400
O996        O  0.07321810  0.94381342  0.04239809    -0.62800
O997        O  0.14245823  0.53450880  0.92901311    -0.57600
O998        O  0.10764977  0.95217950  0.99701057    -0.94300
O999        O  0.13509798  0.97501846  0.95590687    -0.92700
O1000       O  0.10504304  0.57135987  0.99764708    -0.93100
O1001       O  0.07355498  0.54615819  0.04632154    -0.91800
C1002       C  0.13258355  0.95902198  0.98294915     1.17200
H1003       H  0.08741391  0.56302931  0.92363523     0.33200
H1004       H  0.02113491  0.50598006  0.02064396     0.44000
H1005       H  0.08542727  0.94005205  0.92532547     0.37500
H1006       H  0.98604895  0.99929647  0.88597841     0.34000
H1007       H  0.03078684  0.58748313  0.03681911     0.25800
H1008       H  0.92616650  0.98443502  0.95547095     0.31700
H1009       H  0.97916743  0.91938898  0.90532563     0.37600
H1010       H  0.10825700  0.58523715  0.97837146     0.32100
H1011       H  0.14642418  0.53357851  0.95413543     0.31000
H1012       H  0.15186320  0.97920485  0.88246347     0.32700
H1013       H  0.07531502  0.91896609  0.86281104     0.31600
H1014       H  0.06345064  0.52852691  0.05586021     0.35600
H1015       H  0.06585178  0.95835069  0.05962769     0.28400
H1016       H  0.01153819  0.58874624  0.84510832     0.32600
H1017       H  0.01112070  0.93602011  0.82551872     0.35400
H1018       H  0.15975190  0.52450098  0.91827459     0.28100
H1019       H  0.06238993  0.92521035  0.04731851     0.40900
H1020       H  0.94013045  0.52788987  0.00152715     0.31000
H1021       H  0.00479321  0.57825497  0.01196350     0.38600
H1022       H  0.08203089  0.95106787  0.85023990     0.30500
H1023       H  0.94249641  0.97115979  0.92312231     0.30500
H1024       H  0.00806688  0.55827035  0.82560948     0.30800
C1025       C  0.33750370  0.87746122  0.18391434     0.02000
C1026       C  0.34703514  0.90433200  0.16883297     0.02000
C1027       C  0.32948976  0.91758839  0.14342265    -0.18500
C1028       C  0.30296991  0.90409519  0.13249896     0.02000
C1029       C  0.29363308  0.87716037  0.14727992     0.02000
C1030       C  0.31108197  0.86391705  0.17265329    -0.18500
H1031       H  0.30393130  0.84321167  0.18392084     0.04000
H1032       H  0.33659180  0.93821089  0.13192596     0.04000
C1033       C  0.80323671  0.89442399  0.24960719     0.02000
C1034       C  0.79309889  0.86691058  0.23636267     0.02000
C1035       C  0.80884326  0.85293253  0.20991536    -0.18500
C1036       C  0.83415907  0.86623660  0.19603601     0.02000
C1037       C  0.84470270  0.89356900  0.20938223     0.02000
C1038       C  0.82922544  0.90732451  0.23637921    -0.18500
H1039       H  0.83698892  0.92838815  0.24658084     0.04000
H1040       H  0.80097995  0.83194610  0.19955378     0.04000
C1041       C  0.87049155  0.90865575  0.19323658    -0.20100
C1042       C  0.86619413  0.93443382  0.17386405     0.36100
C1043       C  0.88861629  0.94397182  0.15139488    -0.26100
C1044       C  0.91499309  0.92772294  0.14748393     0.02500
C1045       C  0.92051904  0.90351409  0.16918655     0.27300
C1046       C  0.89829636  0.89451546  0.19239187    -0.25200
N1047       N  0.83839076  0.94985464  0.17535718    -0.82600
H1048       H  0.88461151  0.96299301  0.13522781     0.13200
C1049       C  0.93466823  0.93418059  0.11789616     0.02500
N1050       N  0.94766689  0.88697159  0.16584285    -0.81200
H1051       H  0.90183033  0.87517412  0.20814404     0.18000
C1052       C  0.96300461  0.94658283  0.12352274    -0.26000
C1053       C  0.98149716  0.95396092  0.09557071     0.36000
C1054       C  0.97134813  0.94852525  0.06160114    -0.20000
C1055       C  0.94340524  0.93536611  0.05610905    -0.25300
C1056       C  0.92495602  0.92804133  0.08390239     0.27400
H1057       H  0.97031226  0.95123129  0.14969254     0.13100
N1058       N  0.00993984  0.96792521  0.10145796    -0.82600
H1059       H  0.93579897  0.93118030  0.02993358     0.18000
N1060       N  0.89660914  0.91394296  0.07776442    -0.81200
H1061       H  0.01406005  0.97028811  0.12791446     0.33600
H1062       H  0.00886518  0.98929544  0.09145341     0.38100
H1063       H  0.89388821  0.90898334  0.05153619     0.33600
H1064       H  0.87991276  0.92908534  0.08402159     0.30300
H1065       H  0.94743163  0.86877661  0.18230597     0.33600
H1066       H  0.96515951  0.90060226  0.17421092     0.30300
H1067       H  0.82927308  0.95022981  0.15051021     0.38200
H1068       H  0.84277977  0.97167041  0.18298558     0.33600
C1069       C  0.16041699  0.94916952  0.00003347    -0.20100
C1070       C  0.16043325  0.92675073  0.02540366     0.36100
C1071       C  0.18646495  0.92170313  0.04451855    -0.26100
C1072       C  0.21244033  0.93798358  0.03828003     0.02500
C1073       C  0.21319414  0.95892345  0.01179192     0.27300
C1074       C  0.18721212  0.96420055  0.99269902    -0.25200
N1075       N  0.13415565  0.90933998  0.03189413    -0.82600
H1076       H  0.18649064  0.90523307  0.06467716     0.13200
C1077       C  0.23845934  0.93328566  0.06055563     0.02500
N1078       N  0.24013092  0.97520806  0.00505414    -0.81200
H1079       H  0.18766045  0.98110076  0.97306314     0.18000
C1080       C  0.26129973  0.91474366  0.04905858    -0.26000
C1081       C  0.28455671  0.90685756  0.07116140     0.36000
C1082       C  0.28475188  0.91795959  0.10544362    -0.20000
C1083       C  0.26311159  0.93838328  0.11594234    -0.25300
C1084       C  0.23965040  0.94595065  0.09382244     0.27400
H1085       H  0.26039544  0.90543539  0.02319748     0.13100
N1086       N  0.30712454  0.88720434  0.05822627    -0.82600
H1087       H  0.26336983  0.94672369  0.14225633     0.18000
N1088       N  0.21631517  0.96533356  0.10537259    -0.81200
H1089       H  0.29690438  0.86703227  0.05202258     0.33600
H1090       H  0.32341105  0.88296482  0.07679589     0.38100
H1091       H  0.22027142  0.97234873  0.13076930     0.33600
H1092       H  0.21702934  0.98423879  0.09005914     0.30300
H1093       H  0.23703579  0.98966972  0.98445541     0.33600
H1094       H  0.24469829  0.98834461  0.02678237     0.30300
H1095       H  0.12971184  0.89686023  0.00961344     0.38200
H1096       H  0.13798652  0.89420140  0.05165719     0.33600
C1097       C  0.94988802  0.80748158  0.03660009    -0.20100
C1098       C  0.95244002  0.83505367  0.05386591     0.36100
C1099       C  0.93144913  0.84253200  0.07923477    -0.26100
C1100       C  0.90809223  0.82316602  0.08728087     0.02500
C1101       C  0.90495057  0.79613265  0.06954810     0.27300
C1102       C  0.92582512  0.78859553  0.04422312    -0.25200
N1103       N  0.97612540  0.85530614  0.04558619    -0.82600
H1104       H  0.93341462  0.86335836  0.09309022     0.13200
C1105       C  0.88724090  0.83142898  0.11478806     0.02500
N1106       N  0.88061345  0.77651318  0.07739071    -0.81200
H1107       H  0.92374200  0.76742895  0.03110719     0.18000
C1108       C  0.86454816  0.85146058  0.10697666    -0.26000
C1109       C  0.84531487  0.86180336  0.13261478     0.36000
C1110       C  0.84907230  0.85172977  0.16677034    -0.20000
C1111       C  0.87045888  0.83022409  0.17409450    -0.25300
C1112       C  0.88998425  0.82019920  0.14860529     0.27400
H1113       H  0.86213680  0.85951405  0.08084801     0.13100
N1114       N  0.82248742  0.88245881  0.12313161    -0.82600
H1115       H  0.87326992  0.82263686  0.20036988     0.18000
N1116       N  0.91297998  0.79982562  0.15842424    -0.81200
H1117       H  0.83301854  0.90189869  0.11519796     0.33600
H1118       H  0.80887413  0.88797666  0.14400722     0.38100
H1119       H  0.90257439  0.78014427  0.16579192     0.33600
H1120       H  0.92707699  0.79459196  0.13790561     0.30300
H1121       H  0.88115412  0.75780674  0.06135989     0.33600
H1122       H  0.88365473  0.76894756  0.10255346     0.30300
H1123       H  0.97294626  0.86203638  0.02009541     0.38200
H1124       H  0.97486369  0.87437395  0.06097044     0.33600
C1125       C  0.26642946  0.86210622  0.13452116    -0.20100
C1126       C  0.23795469  0.87348687  0.14196584     0.36100
C1127       C  0.21345147  0.86421151  0.12193975    -0.26100
C1128       C  0.21696827  0.84318247  0.09541251     0.02500
C1129       C  0.24512446  0.83004839  0.09006189     0.27300
C1130       C  0.26960716  0.83965860  0.10979169    -0.25200
N1131       N  0.23443066  0.89533858  0.16877415    -0.82600
H1132       H  0.19179877  0.87410887  0.12621215     0.13200
C1133       C  0.19138386  0.83559512  0.07264263     0.02500
N1134       N  0.24886530  0.80763582  0.06390844    -0.81200
H1135       H  0.29160586  0.83092237  0.10446329     0.18000
C1136       C  0.19449425  0.83885816  0.03683192    -0.26000
C1137       C  0.17212540  0.82910142  0.01396756     0.36000
C1138       C  0.14568472  0.81668692  0.02737543    -0.20000
C1139       C  0.14170052  0.81544229  0.06327688    -0.25300
C1140       C  0.16449258  0.82433103  0.08609145     0.27400
H1141       H  0.21485691  0.84838306  0.02668407     0.13100
N1142       N  0.17598675  0.83227240  0.97735145    -0.82600
H1143       H  0.12127612  0.80613461  0.07351751     0.18000
N1144       N  0.16082430  0.82107499  0.12272444    -0.81200
H1145       H  0.19544826  0.84422362  0.97210967     0.33600
H1146       H  0.17928903  0.81118717  0.96687486     0.38100
H1147       H  0.13973494  0.81244579  0.12834487     0.33600
H1148       H  0.17636796  0.80552272  0.13109545     0.30300
H1149       H  0.27103710  0.80062020  0.06293360     0.33600
H1150       H  0.23609825  0.78931478  0.07110189     0.30300
H1151       H  0.23998588  0.88539812  0.19217318     0.38200
H1152       H  0.21213296  0.90179882  0.17067627     0.33600
C1153       C  0.14261785  0.69726200  0.84326929    -0.20100
C1154       C  0.15394669  0.71679765  0.81830273     0.36100
C1155       C  0.17253399  0.70582998  0.79214766    -0.26100
C1156       C  0.18001698  0.67581091  0.79053333     0.02500
C1157       C  0.16930456  0.65631855  0.81622246     0.27300
C1158       C  0.15047535  0.66733773  0.84212040    -0.25200
N1159       N  0.14547375  0.74741297  0.81874601    -0.82600
H1160       H  0.18082088  0.72061516  0.77245529     0.13200
C1161       C  0.19802576  0.66548945  0.76092395     0.02500
N1162       N  0.17687630  0.62544919  0.81690064    -0.81200
H1163       H  0.14171698  0.65237845  0.86135722     0.18000
C1164       C  0.22810761  0.65848689  0.76648035    -0.26000
C1165       C  0.24583118  0.64747235  0.73948158     0.36000
C1166       C  0.23320149  0.64390982  0.70638690    -0.20000
C1167       C  0.20379094  0.65264307  0.70033507    -0.25300
C1168       C  0.18581551  0.66302666  0.72722477     0.27400
H1169       H  0.23749491  0.66097530  0.79214798     0.13100
N1170       N  0.27638752  0.63946996  0.74554779    -0.82600
H1171       H  0.19436400  0.65022516  0.67470035     0.18000
N1172       N  0.15537310  0.67038622  0.71932087    -0.81200
H1173       H  0.28229509  0.64368950  0.77124940     0.33600
H1174       H  0.27826656  0.61665496  0.74172292     0.38100
H1175       H  0.14507651  0.65146527  0.70908769     0.33600
H1176       H  0.14332365  0.67605834  0.74136794     0.30300
H1177       H  0.15710621  0.61324686  0.81474634     0.33600
H1178       H  0.19008631  0.61935965  0.79593049     0.30300
H1179       H  0.15518359  0.75715246  0.84059101     0.38200
H1180       H  0.15445305  0.75839499  0.79748892     0.33600
C1181       C  0.10765512  0.53927620  0.80661452    -0.20100
C1182       C  0.12656889  0.51754191  0.79228306     0.36100
C1183       C  0.14483465  0.52490370  0.76447538    -0.26100
C1184       C  0.14478793  0.55354458  0.75119159     0.02500
C1185       C  0.12377398  0.57436756  0.76311325     0.27300
C1186       C  0.10501299  0.56683999  0.79065614    -0.25200
N1187       N  0.12793047  0.48845461  0.80688433    -0.82600
H1188       H  0.16059187  0.50886488  0.75451525     0.13200
C1189       C  0.16980332  0.56251948  0.72903412     0.02500
N1190       N  0.12277590  0.60348032  0.74859026    -0.81200
H1191       H  0.09003169  0.58325440  0.80135884     0.18000
C1192       C  0.16432632  0.57255403  0.69553384    -0.26000
C1193       C  0.18767169  0.58286200  0.67491667     0.36000
C1194       C  0.21697444  0.58332804  0.68855070    -0.20000
C1195       C  0.22254313  0.57225394  0.72150910    -0.25300
C1196       C  0.19922177  0.56189369  0.74203188     0.27400
H1197       H  0.14173826  0.57266334  0.68553364     0.13100
N1198       N  0.18078988  0.59278231  0.64064991    -0.82600
H1199       H  0.24508562  0.57264381  0.73163639     0.18000
N1200       N  0.20516726  0.55125615  0.77625761    -0.81200
H1201       H  0.16681267  0.61113273  0.64288804     0.33600
H1202       H  0.19982733  0.59971919  0.62751393     0.38100
H1203       H  0.22798197  0.55231860  0.78178654     0.33600
H1204       H  0.19461245  0.56538149  0.79381811     0.30300
H1205       H  0.10625924  0.61617288  0.76056030     0.33600
H1206       H  0.14309614  0.61388561  0.75405091     0.30300
H1207       H  0.10279627  0.97882944  0.79816792     0.38200
H1208       H  0.13876450  0.97361324  0.78823658     0.33600
C1209       C  0.66478301  0.94884899  0.38159203    -0.20100
C1210       C  0.66842662  0.92105663  0.36532896     0.36100
C1211       C  0.69547774  0.91465293  0.34889050    -0.26100
C1212       C  0.71861906  0.93551914  0.34790034     0.02500
C1213       C  0.71520899  0.96312890  0.36427645     0.27300
C1214       C  0.68837174  0.96946542  0.38122509    -0.25200
N1215       N  0.64468178  0.89960998  0.36529723    -0.82600
H1216       H  0.69845931  0.89351546  0.33616976     0.13200
C1217       C  0.74503614  0.92882905  0.32671765     0.02500
N1218       N  0.73882525  0.98468086  0.36312806    -0.81200
H1219       H  0.68555646  0.99096042  0.39332567     0.18000
C1220       C  0.74846586  0.94418695  0.29570393    -0.26000
C1221       C  0.76881399  0.93481957  0.27067391     0.36000
C1222       C  0.78651981  0.90963501  0.27726419    -0.20000
C1223       C  0.78487968  0.89589383  0.30953138    -0.25300
C1224       C  0.76413900  0.90495200  0.33425763     0.27400
H1225       H  0.73370941  0.96241003  0.28985959     0.13100
N1226       N  0.76908792  0.95007604  0.23824663    -0.82600
H1227       H  0.79865598  0.87679268  0.31472291     0.18000
N1228       N  0.76287582  0.88919660  0.36630459    -0.81200
H1229       H  0.77699876  0.97151278  0.24298287     0.33600
H1230       H  0.78351892  0.94043067  0.22043185     0.38100
H1231       H  0.75585624  0.86759931  0.36079996     0.33600
H1232       H  0.74743148  0.89841405  0.38334245     0.30300
H1233       H  0.73262936  0.00402000  0.37617408     0.33600
H1234       H  0.75703193  0.97602251  0.37651932     0.30300
H1235       H  0.64122028  0.89320720  0.39084053     0.38200
H1236       H  0.65080329  0.88064113  0.35149034     0.33600
C1237       C  0.48151185  0.94884046  0.30708681    -0.20100
C1238       C  0.46457167  0.92269988  0.30413951     0.36100
C1239       C  0.44766039  0.91763158  0.27413859    -0.26100
C1240       C  0.44757598  0.93822605  0.24722730     0.02500
C1241       C  0.46556499  0.96371804  0.24955532     0.27300
C1242       C  0.48241614  0.96887662  0.27967108    -0.25200
N1243       N  0.46350013  0.90224939  0.33232837    -0.82600
H1244       H  0.43341980  0.89825699  0.27233407     0.13200
C1245       C  0.42528731  0.93454983  0.21942802     0.02500
N1246       N  0.46578037  0.98460331  0.22182067    -0.81200
H1247       H  0.49544705  0.98900690  0.28231333     0.18000
C1248       C  0.39969880  0.95226657  0.22032045    -0.26000
C1249       C  0.37453097  0.94480516  0.20040820     0.36000
C1250       C  0.37503986  0.91866327  0.18034409    -0.20000
C1251       C  0.40191377  0.90333139  0.17602123    -0.25300
C1252       C  0.42711521  0.91119606  0.19523538     0.27400
H1253       H  0.39872629  0.97081720  0.23816777     0.13100
N1254       N  0.34826664  0.96293341  0.20152763    -0.82600
H1255       H  0.40269883  0.88400513  0.15931591     0.18000
N1256       N  0.45408927  0.89494982  0.19016371    -0.81200
H1257       H  0.35176839  0.98138661  0.21748554     0.33600
H1258       H  0.33100078  0.95075317  0.21260732     0.38100
H1259       H  0.46024993  0.88545970  0.21351275     0.33600
H1260       H  0.47079669  0.90990847  0.18314869     0.30300
H1261       H  0.47999334  0.00233342  0.22767107     0.33600
H1262       H  0.47473017  0.97393822  0.20016482     0.30300
H1263       H  0.48488504  0.89352756  0.33539624     0.38200
H1264       H  0.44941535  0.88443665  0.32635405     0.33600
C1265       C  0.42521743  0.53880072  0.50324109    -0.20100
C1266       C  0.41527015  0.56804534  0.50803244     0.36100
C1267       C  0.39008429  0.57331242  0.52864580    -0.26100
C1268       C  0.37496811  0.54983475  0.54438661     0.02500
C1269       C  0.38448068  0.52056452  0.53876432     0.27300
C1270       C  0.40929711  0.51526569  0.51790753    -0.25200
N1271       N  0.43079331  0.59213117  0.49199400    -0.82600
H1272       H  0.38255310  0.59576760  0.53309640     0.13200
C1273       C  0.35054715  0.55661415  0.56844653     0.02500
N1274       N  0.36981801  0.49605550  0.55475391    -0.81200
H1275       H  0.41693540  0.49274678  0.51426012     0.18000
C1276       C  0.32156725  0.55940265  0.55527209    -0.26000
C1277       C  0.29825952  0.56966875  0.57612069     0.36000
C1278       C  0.30432529  0.57703422  0.61100982    -0.20000
C1279       C  0.33278698  0.57199925  0.62470792    -0.25300
C1280       C  0.35612613  0.56226637  0.60382274     0.27400
H1281       H  0.31732983  0.55476972  0.52820082     0.13100
N1282       N  0.26936566  0.57352789  0.56064663    -0.82600
H1283       H  0.33740821  0.57771966  0.65143809     0.18000
N1284       N  0.38530448  0.55991984  0.61905541    -0.81200
H1285       H  0.27136716  0.58970237  0.54167215     0.33600
H1286       H  0.25373745  0.58125957  0.57842048     0.38100
H1287       H  0.38428415  0.54342813  0.63776484     0.33600
H1288       H  0.40131078  0.55321130  0.60117457     0.30300
H1289       H  0.34742265  0.49610288  0.54719843     0.33600
H1290       H  0.37076015  0.49910148  0.58151629     0.30300
H1291       H  0.42884384  0.58927516  0.46527104     0.38200
H1292       H  0.42046927  0.61220699  0.49799827     0.33600
C1293       C  0.64527792  0.80051693  0.34962702    -0.20100
C1294       C  0.66834359  0.81860460  0.36273278     0.36100
C1295       C  0.69110014  0.82783230  0.34053318    -0.26100
C1296       C  0.69127463  0.81904101  0.30577546     0.02500
C1297       C  0.66873126  0.80018799  0.29284681     0.27300
C1298       C  0.64546955  0.79156497  0.31486767    -0.25200
N1299       N  0.66848290  0.82749869  0.39846370    -0.82600
H1300       H  0.70891713  0.84177758  0.35036031     0.13200
C1301       C  0.71601390  0.82922590  0.28394344     0.02500
N1302       N  0.67040119  0.78868484  0.25818127    -0.81200
H1303       H  0.62798741  0.77702949  0.30528568     0.18000
C1304       C  0.74371384  0.81525905  0.28696072    -0.26000
C1305       C  0.76886044  0.82664744  0.27025908     0.36000
C1306       C  0.76622995  0.85230585  0.25027903    -0.20000
C1307       C  0.73829772  0.86568010  0.24623242    -0.25300
C1308       C  0.71322341  0.85457984  0.26317925     0.27400
H1309       H  0.74600763  0.79607969  0.30332376     0.13100
N1310       N  0.79733699  0.81300536  0.27488590    -0.82600
H1311       H  0.73627680  0.88551997  0.23092987     0.18000
N1312       N  0.68558254  0.87013383  0.26003505    -0.81200
H1313       H  0.80222809  0.81300714  0.30128551     0.33600
H1314       H  0.79565753  0.79103347  0.26648912     0.38100
H1315       H  0.66960078  0.85590371  0.24937091     0.33600
H1316       H  0.67837898  0.87637260  0.28462179     0.30300
H1317       H  0.65255977  0.77430983  0.25319587     0.33600
H1318       H  0.66812981  0.80623935  0.24108951     0.30300
H1319       H  0.64948128  0.84027749  0.40284752     0.38200
H1320       H  0.68686151  0.84110406  0.40381877     0.33600
C1321       C  0.35462179  0.86351249  0.21208456    -0.20100
C1322       C  0.35503015  0.87534714  0.24599850     0.36100
C1323       C  0.37417215  0.86315353  0.27053787    -0.26100
C1324       C  0.39194168  0.83857435  0.26263201     0.02500
C1325       C  0.38972016  0.82528094  0.22940487     0.27300
C1326       C  0.37171886  0.83848557  0.20433175    -0.25200
N1327       N  0.33582777  0.89902964  0.25676274    -0.82600
H1328       H  0.37512597  0.87294908  0.29615844     0.13200
C1329       C  0.41245502  0.82756509  0.28964309     0.02500
N1330       N  0.40488107  0.79834510  0.22029220    -0.81200
H1331       H  0.37095366  0.82904177  0.17852800     0.18000
C1332       C  0.40085480  0.81855861  0.32147410    -0.26000
C1333       C  0.41952375  0.80743891  0.34750694     0.36000
C1334       C  0.45067620  0.80595403  0.34172619    -0.20000
C1335       C  0.46212313  0.81580975  0.31003617    -0.25300
C1336       C  0.44340775  0.82659658  0.28420484     0.27400
H1337       H  0.37700879  0.81965936  0.32572851     0.13100
N1338       N  0.40686324  0.79806979  0.37969407    -0.82600
H1339       H  0.48583224  0.81487843  0.30488677     0.18000
N1340       N  0.45600491  0.83668956  0.25248397    -0.81200
H1341       H  0.38426170  0.80354894  0.38090392     0.33600
H1342       H  0.40762589  0.77497826  0.38003486     0.38100
H1343       H  0.47166140  0.85313516  0.25852321     0.33600
H1344       H  0.46744426  0.81904701  0.24108524     0.30300
H1345       H  0.38865474  0.78290622  0.21275778     0.33600
H1346       H  0.41546417  0.78906062  0.24156493     0.30300
H1347       H  0.32082751  0.90486667  0.23740336     0.38200
H1348       H  0.34919667  0.91745918  0.26229225     0.33600
C1349       C  0.44105290  0.69108879  0.52744713    -0.20100
C1350       C  0.44222298  0.66414803  0.54567027     0.36100
C1351       C  0.41738463  0.65530110  0.56517674    -0.26100
C1352       C  0.39173798  0.67287142  0.56698660     0.02500
C1353       C  0.39113424  0.70045644  0.55017106     0.27300
C1354       C  0.41558036  0.70893769  0.53033328    -0.25200
N1355       N  0.46815357  0.64561242  0.54380512    -0.82600
H1356       H  0.41764483  0.63422722  0.57829666     0.13200
C1357       C  0.36536335  0.66115936  0.58497079     0.02500
N1358       N  0.36610403  0.72022162  0.55216823    -0.81200
H1359       H  0.41463981  0.72998340  0.51720938     0.18000
C1360       C  0.36585453  0.65983405  0.62111633    -0.26000
C1361       C  0.34119432  0.64904573  0.63930846     0.36000
C1362       C  0.31558688  0.63989603  0.62109512    -0.20000
C1363       C  0.31483929  0.64191141  0.58504946    -0.25300
C1364       C  0.33960919  0.65179234  0.56663287     0.27400
H1365       H  0.38556708  0.66694636  0.63519102     0.13100
N1366       N  0.34250410  0.64651516  0.67609825    -0.82600
H1367       H  0.29515781  0.63467711  0.57102872     0.18000
N1368       N  0.33806631  0.65105552  0.52954465    -0.81200
H1369       H  0.34675978  0.66752164  0.68648892     0.33600
H1370       H  0.36049512  0.63289961  0.68227537     0.38100
H1371       H  0.32251284  0.66686834  0.52189983     0.33600
H1372       H  0.35836282  0.65656978  0.51814040     0.30300
H1373       H  0.37362761  0.73996236  0.56348699     0.33600
H1374       H  0.34942591  0.71222624  0.56836257     0.30300
H1375       H  0.47027460  0.63824755  0.51827804     0.38200
H1376       H  0.46530193  0.62674838  0.55888012     0.33600
C1377       C  0.79871881  0.59470794  0.78292192    -0.20100
C1378       C  0.81393734  0.56812779  0.77581702     0.36100
C1379       C  0.83582945  0.55839448  0.79901359    -0.26100
C1380       C  0.84296448  0.57509934  0.82852925     0.02500
C1381       C  0.82630901  0.60039901  0.83694546     0.27300
C1382       C  0.80396141  0.60978923  0.81421837    -0.25200
N1383       N  0.80841904  0.55219093  0.74415280    -0.82600
H1384       H  0.84879169  0.53887790  0.79291431     0.13200
C1385       C  0.87053706  0.56833004  0.84753522     0.02500
N1386       N  0.83331928  0.61720901  0.86757192    -0.81200
H1387       H  0.79202997  0.63007862  0.81965900     0.18000
C1388       C  0.89629365  0.58457091  0.83990785    -0.26000
C1389       C  0.92358153  0.57842544  0.85602604     0.36000
C1390       C  0.92504701  0.55527742  0.88023281    -0.20000
C1391       C  0.89883489  0.53937793  0.88819908    -0.25300
C1392       C  0.87157658  0.54575092  0.87209675     0.27400
H1393       H  0.89504570  0.60199997  0.82104234     0.13100
N1394       N  0.94962482  0.59559366  0.84783960    -0.82600
H1395       H  0.89964880  0.52148820  0.90658289     0.18000
N1396       N  0.84507792  0.52924984  0.88022298    -0.81200
H1397       H  0.94465133  0.61160522  0.82941912     0.33600
H1398       H  0.95609036  0.60699380  0.87023213     0.38100
H1399       H  0.84970926  0.51314152  0.89865106     0.33600
H1400       H  0.82996190  0.54389836  0.89161505     0.30300
H1401       H  0.81945731  0.63566098  0.86963404     0.33600
H1402       H  0.82869731  0.60384531  0.88880419     0.30300
H1403       H  0.81532663  0.56555641  0.72376205     0.38200
H1404       H  0.82139883  0.53306347  0.74298587     0.33600
C1405       C  0.94690290  0.69382605  0.84988021    -0.20100
C1406       C  0.92436589  0.67476831  0.86214742     0.36100
C1407       C  0.90110632  0.66632305  0.84018610    -0.26100
C1408       C  0.89946695  0.67717202  0.80648645     0.02500
C1409       C  0.92165454  0.69646319  0.79417310     0.27300
C1410       C  0.94557586  0.70424212  0.81593017    -0.25200
N1411       N  0.92451203  0.66383296  0.89674564    -0.82600
H1412       H  0.88373447  0.65184588  0.84973940     0.13200
C1413       C  0.87325413  0.66936609  0.78541421     0.02500
N1414       N  0.91902330  0.70910328  0.76038909    -0.81200
H1415       H  0.96256425  0.71943448  0.80693470     0.18000
C1416       C  0.84701318  0.68561848  0.78999426    -0.26000
C1417       C  0.82026888  0.67642096  0.77435584     0.36000
C1418       C  0.82010319  0.65049950  0.75393711    -0.20000
C1419       C  0.84678052  0.63529935  0.74769542    -0.25300
C1420       C  0.87342614  0.64432250  0.76361910     0.27400
H1421       H  0.84722030  0.70481287  0.80693507     0.13100
N1422       N  0.79299693  0.69205996  0.78096644    -0.82600
H1423       H  0.84640655  0.61549228  0.73176265     0.18000
N1424       N  0.90017662  0.62728210  0.75935972    -0.81200
H1425       H  0.79680487  0.70976254  0.79796112     0.33600
H1426       H  0.78598016  0.70134781  0.75774037     0.38100
H1427       H  0.89620004  0.60895511  0.74335019     0.33600
H1428       H  0.91585302  0.64042453  0.74671689     0.30300
H1429       H  0.93676913  0.72358773  0.75573707     0.33600
H1430       H  0.92079449  0.69201739  0.74222232     0.31100
H1431       H  0.94487759  0.65336124  0.90118570     0.38200
H1432       H  0.92274892  0.68175571  0.91377143     0.33600
C1433       C  0.71601214  0.59407287  0.69611584    -0.20100
C1434       C  0.72203055  0.57202854  0.67134690     0.36100
C1435       C  0.69982156  0.56369016  0.64762127    -0.26100
C1436       C  0.67180597  0.57755660  0.64772339     0.02500
C1437       C  0.66513801  0.59800947  0.67450847     0.27300
C1438       C  0.68718840  0.60571352  0.69856383    -0.25200
N1439       N  0.75121162  0.55943402  0.66891252    -0.82600
H1440       H  0.70504261  0.54750942  0.62776020     0.13200
C1441       C  0.65139075  0.57233096  0.61792871     0.02500
N1442       N  0.63698722  0.61273073  0.67685666    -0.81200
H1443       H  0.68245981  0.62259192  0.71778113     0.18000
C1444       C  0.62250158  0.56129161  0.62332209    -0.26000
C1445       C  0.60328931  0.55509321  0.59540443     0.36000
C1446       C  0.61381979  0.55859941  0.56135264    -0.20000
C1447       C  0.64244969  0.57013936  0.55597595    -0.25300
C1448       C  0.66120414  0.57736162  0.58380709     0.27400
H1449       H  0.61520122  0.55651264  0.64928167     0.13100
N1450       N  0.57380925  0.54376919  0.60154110    -0.82600
H1451       H  0.65043656  0.57294823  0.52981134     0.18000
N1452       N  0.69049300  0.58911898  0.57751678    -0.81200
H1453       H  0.57028601  0.54082663  0.62796276     0.33600
H1454       H  0.55881070  0.56009624  0.59393921     0.38100
H1455       H  0.69421631  0.59151662  0.55105178     0.33600
H1456       H  0.69119895  0.61032162  0.58823451     0.30300
H1457       H  0.62038830  0.59719710  0.68207752     0.33600
H1458       H  0.63230327  0.62282314  0.65335451     0.30300
H1459       H  0.74914088  0.53655321  0.67173946     0.38200
H1460       H  0.75944960  0.56347782  0.64416283     0.33600
C1461       C  0.73523182  0.65206271  0.67339867    -0.20100
C1462       C  0.74261440  0.64510876  0.63903011     0.36100
C1463       C  0.72477674  0.65601337  0.61238813    -0.26100
C1464       C  0.69941247  0.67273478  0.61997101     0.02500
C1465       C  0.69278256  0.68079585  0.65422966     0.27300
C1466       C  0.71117493  0.67067438  0.68082245    -0.25200
N1467       N  0.76726064  0.62588735  0.63161461    -0.82600
H1468       H  0.72972659  0.65029240  0.58579330     0.13200
C1469       C  0.67875323  0.67989536  0.59200163     0.02500
N1470       N  0.66684987  0.69825609  0.66176239    -0.81200
H1471       H  0.70586816  0.67588230  0.70746318     0.18000
C1472       C  0.65336969  0.66225120  0.58725316    -0.26000
C1473       C  0.63262774  0.66850667  0.56127860     0.36000
C1474       C  0.63755364  0.69322917  0.53985385    -0.20000
C1475       C  0.66363834  0.71034109  0.54434618    -0.25300
C1476       C  0.68415449  0.70402894  0.57046014     0.27400
H1477       H  0.64985570  0.64348032  0.60384023     0.13100
N1478       N  0.60683319  0.64986131  0.55669578    -0.82600
H1479       H  0.66764606  0.72937762  0.52820157     0.18000
N1480       N  0.71019324  0.72221063  0.57559122    -0.81200
H1481       H  0.60645970  0.63311699  0.57515501     0.33600
H1482       H  0.60877880  0.63935003  0.53267068     0.38100
H1483       H  0.71098992  0.73904246  0.55728545     0.33600
H1484       H  0.70817360  0.73259752  0.59968785     0.30300
H1485       H  0.66496287  0.70191271  0.68835410     0.33600
H1486       H  0.66994150  0.71897109  0.65052389     0.30300
H1487       H  0.78675201  0.63672231  0.63960557     0.38200
H1488       H  0.76919073  0.62232238  0.60501507     0.33600
loop_ 
_geom_bond_atom_site_label_1 
_geom_bond_atom_site_label_2 
_geom_bond_distance 
_geom_bond_site_symmetry_2 
_ccdc_geom_bond_type 
C1            C2   1.414       .  A
C1            C6   1.393       .  A
C1          C717   1.468       .  S
C2            C3   1.403       .  A
C2          C689   1.485       .  S
C3            C4   1.406       .  A
C3            H8   1.084       .  S
C4            C5   1.418       .  A
C4          C633   1.485       .  S
C5            C6   1.393       .  A
C5          C674   1.479       .  S
C6            H7   1.085       .  S
Zr9          O10   2.440       .  S
Zr9          O11   2.457       .  S
Zr9          O12   2.431       .  S
Zr9          O15   2.430       .  S
Zr9          O17   2.377       .  S
Zr9          O18   2.380       .  S
Zr9          O19   2.410       .  S
Zr9          O20   2.402       .  S
O10          H66   0.990       .  S
O10          H74   0.990       .  S
O11          C31   1.288       .  A
O12          C33   1.284       .  A
O13         Zr23   2.408       .  S
O13          C32   1.281       .  A
O14         Zr22   2.415       .  S
O14          C33   1.283       .  A
O15          C32   1.285       .  A
O16         Zr24   2.417       .  S
O16          C31   1.282       .  A
O17         Zr22   2.391       .  S
O17         Zr24   2.374       .  S
O18         Zr23   2.388       .  S
O18         Zr24   2.371       .  S
O18          H53   0.967       .  S
O19         Zr22   2.393       .  S
O19         Zr39   2.392       .  S
O19          H56   0.966       .  S
O20         Zr23   2.382       .  S
O20         Zr39   2.391       .  S
Zr21         O46   2.442       .  S
Zr21         O40   2.453       .  S
Zr21         O48   2.434       .  S
Zr21         O36   2.431       .  S
Zr21         O27   2.404       .  S
Zr21         O28   2.405       .  S
Zr21         O29   2.381       .  S
Zr21         O30   2.381       .  S
Zr22         O41   2.436       .  S
Zr22         O34   2.436       .  S
Zr22         O35   2.424       .  S
Zr22         O28   2.392       .  S
Zr22         O29   2.384       .  S
Zr23         O25   2.436       .  S
Zr23         O47   2.435       .  S
Zr23         O49   2.406       .  S
Zr23         O27   2.391       .  S
Zr23         O30   2.386       .  S
Zr24         O50   2.436       .  S
Zr24         O51   2.435       .  S
Zr24         O26   2.436       .  S
Zr24         O27   2.393       .  S
Zr24         O28   2.389       .  S
O25          H62   0.990       .  S
O26          H57   0.990       .  S
O26          H71   0.990       .  S
O28          H54   0.967       .  S
O29         Zr39   2.377       .  S
O30         Zr39   2.375       .  S
O30          H55   0.966       .  S
C31         C111   1.479       .  S
C32         C730   1.481       .  S
C33         C605   1.480       .  S
O34          H70   0.990       .  S
O35          C37   1.282       .  A
O36          C37   1.285       .  A
C37         C590   1.489       .  S
O38         Zr39   2.439       .  S
O38          H67   0.991       .  S
Zr39         O42   2.438       .  S
Zr39         O43   2.438       .  S
Zr39         O44   2.415       .  S
O40          C45   1.287       .  A
O41          H58   0.990       .  S
O41          H73   0.990       .  S
O42          H59   0.990       .  S
O43          H63   0.990       .  S
O43          H72   0.990       .  S
O44          C45   1.282       .  A
C45          C97   1.477       .  S
O46          H65   0.990       .  S
O46          H69   0.990       .  S
O47          H61   0.990       .  S
O47          H68   0.990       .  S
O48          C52   1.283       .  A
O49          C52   1.279       .  A
O50          H60   0.990       .  S
O51          H64   0.990       .  S
C52         C549   1.463       .  S
Zr75         O76   2.443       .  S
Zr75         O77   2.454       .  S
Zr75         O78   2.449       .  S
Zr75         O81   2.432       .  S
Zr75         O83   2.382       .  S
Zr75         O84   2.384       .  S
Zr75        O829   2.411       .  S
Zr75        O830   2.403       .  S
O76         H132   0.990       .  S
O76         H140   0.991       .  S
O77          C97   1.286       .  A
O78          C99   1.286       .  A
O79         Zr89   2.418       .  S
O79          C98   1.282       .  A
O80         Zr88   2.418       .  S
O80          C99   1.281       .  A
O81          C98   1.283       .  A
O82         Zr90   2.415       .  S
O82          C97   1.282       .  A
O83         Zr88   2.396       .  S
O83         Zr90   2.380       .  S
O84         Zr89   2.390       .  S
O84         Zr90   2.376       .  S
O84         H119   0.966       .  S
O85        Zr105   2.396       .  S
O85        Zr819   2.415   1_545  S
O85        Zr832   2.398       .  S
O85         H122   0.966       .  S
O86        Zr105   2.389   1_565  S
O86        Zr819   2.403       .  S
O86        Zr833   2.385       .  S
Zr87        O112   2.441       .  S
Zr87        O106   2.450       .  S
Zr87        O114   2.441       .  S
Zr87        O102   2.444       .  S
Zr87         O95   2.379       .  S
Zr87         O96   2.387       .  S
Zr87        O837   2.404   1_545  S
Zr87        O838   2.409   1_545  S
Zr88        O100   2.435       .  S
Zr88        O851   2.438       .  S
Zr88        O845   2.424       .  S
Zr88         O94   2.392       .  S
Zr88        O829   2.401       .  S
Zr88        O839   2.393       .  S
Zr89        O113   2.439       .  S
Zr89        O835   2.435       .  S
Zr89        O859   2.411       .  S
Zr89         O93   2.391       .  S
Zr89        O830   2.389       .  S
Zr89        O840   2.397       .  S
Zr90        O116   2.436       .  S
Zr90        O117   2.436       .  S
Zr90         O92   2.438       .  S
Zr90         O93   2.392       .  S
Zr90         O94   2.392       .  S
O91        Zr833   2.435   1_545  S
O91         H128   0.990       .  S
O92         H123   0.990       .  S
O92         H137   0.990       .  S
O93        Zr831   2.400       .  S
O94        Zr831   2.410       .  S
O94         H120   0.967       .  S
O95        Zr105   2.374       .  S
O95        Zr832   2.388       .  S
O96        Zr105   2.378       .  S
O96        Zr833   2.399   1_545  S
O96         H121   0.966       .  S
C98         C493   1.461       .  S
C99         C465   1.483       .  S
O100        H136   0.990       .  S
O101       Zr832   2.420       .  S
O101        C103   1.283       .  A
O102        C103   1.286       .  A
C103        C702   1.478       .  S
O104       Zr105   2.439       .  S
O104        H133   0.991       .  S
Zr105       O108   2.438       .  S
Zr105       O109   2.439       .  S
Zr105       O110   2.422       .  S
O106        C111   1.286       .  A
O107       Zr832   2.436       .  S
O107        H124   0.990       .  S
O107        H139   0.990       .  S
O108        H125   0.990       .  S
O109        H129   0.990       .  S
O109        H138   0.990       .  S
O110        C111   1.283       .  A
O112        H131   0.991       .  S
O112        H135   0.990       .  S
O113        H127   0.990       .  S
O113        H134   0.990       .  S
O114        C118   1.285       .  A
O115       Zr833   2.410   1_545  S
O115        C118   1.280       .  A
O116        H126   0.991       .  S
O117        H130   0.990       .  S
C118        C521   1.469       .  S
C141        C142   1.416       .  A
C141        C146   1.396       .  A
C141        C534   1.476       .  S
C142        C143   1.398       .  A
C142        C618   1.480       .  S
C143        C144   1.397       .  A
C143        H148   1.084       .  S
C144        C145   1.413       .  A
C144        C422   1.474       .  S
C145        C146   1.396       .  A
C145        C450   1.472       .  S
C146        H147   1.084       .  S
Zr149       O150   2.443       .  S
Zr149       O151   2.449       .  S
Zr149       O152   2.443       .  S
Zr149       O155   2.440   1_455  S
Zr149       O157   2.383       .  S
Zr149       O158   2.383       .  S
Zr149       O159   2.413       .  S
Zr149       O160   2.407       .  S
O150        H206   0.990       .  S
O150        H214   0.991       .  S
O151        C171   1.286       .  A
O152        C173   1.285       .  A
O153       Zr163   2.410       .  S
O153        C172   1.280       .  A
O154       Zr162   2.417       .  S
O154        C173   1.281       .  A
O155        C172   1.285       .  A
O156       Zr164   2.421       .  S
O156        C171   1.283       .  A
O157       Zr162   2.399       .  S
O157       Zr164   2.375       .  S
O158       Zr163   2.390   1_455  S
O158       Zr164   2.376       .  S
O158        H193   0.967       .  S
O159       Zr162   2.401       .  S
O159       Zr179   2.389       .  S
O159        H196   0.965       .  S
O160       Zr163   2.388   1_455  S
O160       Zr179   2.395       .  S
Zr161       O186   2.440   1_556  S
Zr161       O180   2.436       .  S
Zr161       O188   2.428   1_456  S
Zr161       O176   2.442   1_556  S
Zr161       O167   2.399       .  S
Zr161       O168   2.404       .  S
Zr161       O169   2.378       .  S
Zr161       O170   2.384       .  S
Zr162       O181   2.436       .  S
Zr162       O174   2.434       .  S
Zr162       O175   2.430       .  S
Zr162       O168   2.394       .  S
Zr162       O169   2.384       .  S
Zr163       O165   2.436       .  S
Zr163       O187   2.437       .  S
Zr163       O189   2.409       .  S
Zr163       O167   2.384   1_655  S
Zr163       O170   2.383   1_655  S
Zr164       O190   2.434   1_556  S
Zr164       O191   2.434   1_556  S
Zr164       O166   2.436   1_556  S
Zr164       O167   2.392       .  S
Zr164       O168   2.393       .  S
O165        H202   0.990       .  S
O166        H197   0.990       .  S
O166        H211   0.990   1_554  S
O168        H194   0.965   1_556  S
O169       Zr179   2.376       .  S
O170       Zr179   2.376       .  S
O170        H195   0.967   1_455  S
C171        C237   1.478       .  S
C172        C661   1.468       .  S
C173        C409   1.466       .  S
O174        H210   0.990       .  S
O175        C177   1.284   1_556  A
O176        C177   1.285       .  A
C177        C394   1.479       .  S
O178       Zr179   2.440       .  S
O178        H207   0.990       .  S
Zr179       O182   2.437       .  S
Zr179       O183   2.439   1_455  S
Zr179       O184   2.423       .  S
O180        C185   1.284       .  A
O181        H198   0.990       .  S
O181        H213   0.989       .  S
O182        H199   0.990       .  S
O183        H203   0.990       .  S
O183        H212   0.990       .  S
O184        C185   1.284       .  A
C185        C251   1.471       .  S
O186        H205   0.990       .  S
O186        H209   0.990       .  S
O187        H201   0.990       .  S
O187        H208   0.990       .  S
O188        C192   1.284       .  A
O189        C192   1.281   1_556  A
O190        H200   0.990   1_455  S
O191        H204   0.991       .  S
C192        C353   1.479       .  S
Zr215       O216   2.441       .  S
Zr215       O217   2.457       .  S
Zr215       O218   2.466   1_455  S
Zr215       O221   2.450       .  S
Zr215       O223   2.381       .  S
Zr215       O224   2.391       .  S
Zr215       O969   2.415       .  S
Zr215       O970   2.403   1_545  S
O216        H272   0.990       .  S
O216        H280   0.990       .  S
O217        C237   1.286       .  A
O218        C239   1.290       .  A
O219       Zr973   2.407       .  S
O219        C238   1.281       .  A
O220       Zr972   2.401       .  S
O220        C239   1.279       .  A
O221        C238   1.287       .  A
O222       Zr230   2.416       .  S
O222        C237   1.280       .  A
O223       Zr230   2.380       .  S
O223       Zr972   2.396   1_455  S
O224       Zr230   2.379       .  S
O224       Zr973   2.396       .  S
O224        H259   0.966       .  S
O225       Zr228   2.396   1_455  S
O225       Zr245   2.393       .  S
O225       Zr959   2.417       .  S
O225        H262   0.966   1_455  S
O226       Zr229   2.385       .  S
O226       Zr245   2.382       .  S
O226       Zr959   2.402       .  S
Zr227       O252   2.441   1_556  S
Zr227       O246   2.448       .  S
Zr227       O254   2.433       .  S
Zr227       O242   2.441   1_556  S
Zr227       O235   2.378       .  S
Zr227       O236   2.382       .  S
Zr227       O977   2.401       .  S
Zr227       O978   2.405       .  S
Zr228       O247   2.437       .  S
Zr228       O984   2.434       .  S
Zr228       O241   2.406   1_556  S
Zr228       O964   2.404       .  S
Zr228       O235   2.388   1_655  S
Zr228       O967   2.394   1_655  S
Zr228       O978   2.393   1_655  S
Zr229       O231   2.437       .  S
Zr229       O997   2.436       .  S
Zr229       O255   2.415       .  S
Zr229       O963   2.406       .  S
Zr229       O236   2.386       .  S
Zr229       O968   2.396       .  S
Zr229       O977   2.383       .  S
Zr230       O256   2.439       .  S
Zr230       O257   2.435   1_556  S
Zr230       O232   2.437   1_556  S
Zr230       O233   2.392       .  S
Zr230       O234   2.396       .  S
O231        H268   0.990       .  S
O232        H263   0.990       .  S
O232        H277   0.990       .  S
O233       Zr971   2.405   1_545  S
O233       Zr973   2.387       .  S
O234       Zr971   2.408   1_545  S
O234       Zr972   2.392   1_455  S
O234        H260   0.964   1_556  S
O235       Zr245   2.375       .  S
O236       Zr245   2.377       .  S
O236        H261   0.967       .  S
C238        C437   1.474       .  S
C239        C646   1.486       .  S
O240       Zr972   2.434   1_554  S
O240        H276   0.990       .  S
O241        C243   1.279       .  A
O242        C243   1.284   1_455  A
C243        C310   1.466       .  S
O244       Zr245   2.438       .  S
O244        H273   0.990       .  S
Zr245       O248   2.437   1_455  S
Zr245       O249   2.439       .  S
Zr245       O250   2.410       .  S
O246        C251   1.286       .  A
O247        H264   0.990       .  S
O247        H279   0.991       .  S
O248        H265   0.990       .  S
O249        H269   0.990       .  S
O249        H278   0.989       .  S
O250        C251   1.280       .  A
O252        H271   0.991       .  S
O252        H275   0.990       .  S
O253       Zr973   2.437       .  S
O253        H267   0.990       .  S
O253        H274   0.990       .  S
O254        C258   1.285       .  A
O255        C258   1.282       .  A
O256        H266   0.990       .  S
O257        H270   0.990       .  S
C258        C325   1.488   1_556  S
C281        C282   1.419       .  A
C281        C286   1.402       .  A
C281        C577   1.485       .  S
C282        C283   1.400       .  A
C282        C506   1.478       .  S
C283        C284   1.397       .  A
C283        H288   1.084       .  S
C284        C285   1.412       .  A
C284        C338   1.474       .  S
C285        C286   1.399       .  A
C285        C381   1.482       .  S
C286        H287   1.084       .  S
C289        C290   1.414       .  A
C289        C294   1.400       .  A
C289        C478   1.470       .  S
C290        C291   1.394       .  A
C290        C562   1.480       .  S
C291        C292   1.394       .  A
C291        H296   1.085       .  S
C292        C293   1.415       .  A
C292        C366   1.470       .  S
C293        C294   1.397       .  A
C293        C297   1.480       .  S
C294        H295   1.084       .  S
C297        C298   1.407       .  A
C297        C302   1.403       .  A
C298        C299   1.400       .  A
C298        N303   1.432       .  S
C299        C300   1.402       .  A
C299        H304   1.084       .  S
C300        C301   1.408       .  A
C300        C305   1.475       .  S
C301        C302   1.403       .  A
C301        N306   1.437       .  S
C302        H307   1.083       .  S
N303        H323   1.045       .  S
N303        H324   1.046       .  S
C305        C308   1.401       .  A
C305        C312   1.411       .  A
N306        H321   1.045       .  S
N306        H322   1.045       .  S
C308        C309   1.404       .  A
C308        H313   1.084       .  S
C309        C310   1.410       .  A
C309        N314   1.438   1_655  S
C310        C311   1.400       .  A
C311        C312   1.401       .  A
C311        H315   1.084       .  S
C312        N316   1.438       .  S
N314        H317   1.046       .  S
N314        H318   1.046       .  S
N316        H319   1.045       .  S
N316        H320   1.045       .  S
C325        C326   1.417       .  A
C325        C330   1.411   1_554  A
C326        C327   1.404       .  A
C326        N331   1.438       .  S
C327        C328   1.400       .  A
C327        H332   1.084       .  S
C328        C329   1.403       .  A
C328        C333   1.472       .  S
C329        C330   1.402   1_554  A
C329        N334   1.438       .  S
C330        H335   1.083       .  S
N331        H351   1.046       .  S
N331        H352   1.046       .  S
C333        C336   1.399       .  A
C333        C340   1.407       .  A
N334        H349   1.046   1_554  S
N334        H350   1.045       .  S
C336        C337   1.398       .  A
C336        H341   1.084       .  S
C337        C338   1.415       .  A
C337        N342   1.438       .  S
C338        C339   1.401       .  A
C339        C340   1.402       .  A
C339        H343   1.084       .  S
C340        N344   1.437       .  S
N342        H345   1.045       .  S
N342        H346   1.044       .  S
N344        H347   1.046       .  S
N344        H348   1.045       .  S
C353        C354   1.415       .  A
C353        C358   1.408       .  A
C354        C355   1.403       .  A
C354        N359   1.438       .  S
C355        C356   1.400       .  A
C355        H360   1.084       .  S
C356        C357   1.404       .  A
C356        C361   1.468       .  S
C357        C358   1.400       .  A
C357        N362   1.438       .  S
C358        H363   1.084       .  S
N359        H379   1.045       .  S
N359        H380   1.046       .  S
C361        C364   1.400       .  A
C361        C368   1.415       .  A
N362        H377   1.046       .  S
N362        H378   1.045       .  S
C364        C365   1.396       .  A
C364        H369   1.084       .  S
C365        C366   1.413       .  A
C365        N370   1.438       .  S
C366        C367   1.400       .  A
C367        C368   1.396       .  A
C367        H371   1.084       .  S
C368        N372   1.439       .  S
N370        H373   1.045       .  S
N370        H374   1.044       .  S
N372        H375   1.045       .  S
N372        H376   1.043       .  S
C381        C382   1.409       .  A
C381        C386   1.398       .  A
C382        C383   1.408       .  A
C382        N387   1.437       .  S
C383        C384   1.406       .  A
C383        H388   1.083       .  S
C384        C385   1.414       .  A
C384        C389   1.490       .  S
C385        C386   1.403       .  A
C385        N390   1.438       .  S
C386        H391   1.084       .  S
N387        H407   1.045       .  S
N387        H408   1.046       .  S
C389        C392   1.405       .  A
C389        C396   1.412       .  A
N390        H405   1.045       .  S
N390        H406   1.045       .  S
C392        C393   1.406       .  A
C392        H397   1.084       .  S
C393        C394   1.411       .  A
C393        N398   1.438   1_554  S
C394        C395   1.404       .  A
C395        C396   1.408       .  A
C395        H399   1.084       .  S
C396        N400   1.438       .  S
N398        H401   1.046       .  S
N398        H402   1.045       .  S
N400        H403   1.046       .  S
N400        H404   1.046       .  S
C409        C410   1.409       .  A
C409        C414   1.399       .  A
C410        C411   1.402       .  A
C410        N415   1.438       .  S
C411        C412   1.402       .  A
C411        H416   1.084       .  S
C412        C413   1.418       .  A
C412        C417   1.476       .  S
C413        C414   1.400       .  A
C413        N418   1.439       .  S
C414        H419   1.084       .  S
N415        H435   1.045       .  S
N415        H436   1.046       .  S
C417        C420   1.403       .  A
C417        C424   1.418       .  A
N418        H433   1.045       .  S
N418        H434   1.042       .  S
C420        C421   1.404       .  A
C420        H425   1.084       .  S
C421        C422   1.408       .  A
C421        N426   1.438       .  S
C422        C423   1.397       .  A
C423        C424   1.396       .  A
C423        H427   1.083       .  S
C424        N428   1.439       .  S
N426        H429   1.046       .  S
N426        H430   1.045       .  S
N428        H431   1.046       .  S
N428        H432   1.042       .  S
C437        C438   1.414       .  A
C437        C442   1.402       .  A
C438        C439   1.400       .  A
C438        N443   1.438   1_545  S
C439        C440   1.399       .  A
C439        H444   1.084       .  S
C440        C441   1.410       .  A
C440        C445   1.475       .  S
C441        C442   1.405       .  A
C441        N446   1.438       .  S
C442        H447   1.084       .  S
N443       H1207   1.045       .  S
N443       H1208   1.046       .  S
C445        C448   1.401       .  A
C445        C452   1.411       .  A
N446        H461   1.046       .  S
N446        H462   1.044       .  S
C448        C449   1.401       .  A
C448        H453   1.084       .  S
C449        C450   1.417       .  A
C449        N454   1.439       .  S
C450        C451   1.398       .  A
C451        C452   1.398       .  A
C451        H455   1.084       .  S
C452        N456   1.438       .  S
N454        H457   1.046       .  S
N454        H458   1.043       .  S
N456        H459   1.046       .  S
N456        H460   1.045       .  S
H463       N1187   1.045       .  S
H464       N1187   1.046       .  S
C465        C466   1.414       .  A
C465        C470   1.409       .  A
C466        C467   1.403       .  A
C466        N471   1.437       .  S
C467        C468   1.399       .  A
C467        H472   1.081       .  S
C468        C469   1.403       .  A
C468        C473   1.472       .  S
C469        C470   1.404       .  A
C469        N474   1.438       .  S
C470        H475   1.083       .  S
N471        H491   1.045       .  S
N471        H492   1.045       .  S
C473        C476   1.401       .  A
C473        C480   1.414       .  A
N474        H489   1.045       .  S
N474        H490   1.046       .  S
C476        C477   1.396       .  A
C476        H481   1.084       .  S
C477        C478   1.415       .  A
C477        N482   1.439       .  S
C478        C479   1.402       .  A
C479        C480   1.396       .  A
C479        H483   1.084       .  S
C480        N484   1.438       .  S
N482        H485   1.046       .  S
N482        H486   1.042       .  S
N484        H487   1.046       .  S
N484        H488   1.043       .  S
C493        C494   1.405       .  A
C493        C498   1.402       .  A
C494        C495   1.402       .  A
C494        N499   1.438       .  S
C495        C496   1.405       .  A
C495        H500   1.084       .  S
C496        C497   1.407       .  A
C496        C501   1.475       .  S
C497        C498   1.403       .  A
C497        N502   1.437       .  S
C498        H503   1.084       .  S
N499        H519   1.046       .  S
N499        H520   1.045       .  S
C501        C504   1.403       .  A
C501        C508   1.409       .  A
N502        H517   1.045       .  S
N502        H518   1.046       .  S
C504        C505   1.403       .  A
C504        H509   1.084       .  S
C505        C506   1.410       .  A
C505        N510   1.438       .  S
C506        C507   1.403       .  A
C507        C508   1.395       .  A
C507        H511   1.084       .  S
C508        N512   1.432       .  S
N510        H513   1.045       .  S
N510        H514   1.044       .  S
N512        H515   1.042       .  S
N512        H516   1.046       .  S
C521        C522   1.409       .  A
C521        C526   1.405       .  A
C522        C523   1.403       .  A
C522        N527   1.437       .  S
C523        C524   1.401       .  A
C523        H528   1.084       .  S
C524        C525   1.407       .  A
C524        C529   1.469       .  S
C525        C526   1.396       .  A
C525        N530   1.432   1_545  S
C526        H531   1.084   1_545  S
N527        H547   1.046       .  S
N527        H548   1.045       .  S
C529        C532   1.401       .  A
C529        C536   1.413       .  A
N530        H545   1.045       .  S
N530        H546   1.046       .  S
C532        C533   1.400       .  A
C532        H537   1.084       .  S
C533        C534   1.416       .  A
C533        N538   1.438       .  S
C534        C535   1.402       .  A
C535        C536   1.394       .  A
C535        H539   1.085       .  S
C536        N540   1.439       .  S
N538        H541   1.045       .  S
N538        H542   1.043       .  S
N540        H543   1.046       .  S
N540        H544   1.043       .  S
C549        C550   1.407       .  A
C549        C554   1.402       .  A
C550        C551   1.400       .  A
C550        N555   1.438       .  S
C551        C552   1.401       .  A
C551        H556   1.083       .  S
C552        C553   1.409       .  A
C552        C557   1.472       .  S
C553        C554   1.405       .  A
C553        N558   1.438       .  S
C554        H559   1.084       .  S
N555        H575   1.045       .  S
N555        H576   1.046       .  S
C557        C560   1.401       .  A
C557        C564   1.412       .  A
N558        H573   1.046       .  S
N558        H574   1.043       .  S
C560        C561   1.400       .  A
C560        H565   1.084       .  S
C561        C562   1.406       .  A
C561        N566   1.432       .  S
C562        C563   1.404       .  A
C563        C564   1.398       .  A
C563        H567   1.083       .  S
C564        N568   1.434       .  S
N566        H569   1.046       .  S
N566        H570   1.045       .  S
N568        H571   1.043       .  S
N568        H572   1.044       .  S
C577        C578   1.416       .  A
C577        C582   1.402       .  A
C578        C579   1.398       .  A
C578        N583   1.437       .  S
C579        C580   1.402       .  A
C579        H584   1.084       .  S
C580        C581   1.419       .  A
C580        C585   1.484       .  S
C581        C582   1.403       .  A
C581        N586   1.439       .  S
C582        H587   1.084       .  S
N583        H603   1.043       .  S
N583        H604   1.045       .  S
C585        C588   1.401       .  A
C585        C592   1.406       .  A
N586        H601   1.046       .  S
N586        H602   1.043       .  S
C588        C589   1.406       .  A
C588        H593   1.084       .  S
C589        C590   1.419       .  A
C589        N594   1.438       .  S
C590        C591   1.407       .  A
C591        C592   1.400       .  A
C591        H595   1.083       .  S
C592        N596   1.431       .  S
N594        H597   1.046       .  S
N594        H598   1.045       .  S
N596        H599   1.045       .  S
N596        H600   1.046       .  S
C605        C606   1.415       .  A
C605        C610   1.406       .  A
C606        C607   1.405       .  A
C606        N611   1.439       .  S
C607        C608   1.402       .  A
C607        H612   1.084       .  S
C608        C609   1.412       .  A
C608        C613   1.471       .  S
C609        C610   1.395       .  A
C609        N614   1.440       .  S
C610        H615   1.084       .  S
N611        H631   1.046       .  S
N611        H632   1.046       .  S
C613        C616   1.402       .  A
C613        C620   1.415       .  A
N614        H629   1.045       .  S
N614        H630   1.043       .  S
C616        C617   1.401       .  A
C616        H621   1.084       .  S
C617        C618   1.407       .  A
C617        N622   1.432       .  S
C618        C619   1.402       .  A
C619        C620   1.395       .  A
C619        H623   1.083       .  S
C620        N624   1.439       .  S
N622        H625   1.046       .  S
N622        H626   1.045       .  S
N624        H627   1.045       .  S
N624        H628   1.043       .  S
C633        C634   1.410       .  A
C633        C638   1.406       .  A
C634        C635   1.406       .  A
C634        N639   1.438       .  S
C635        C636   1.402       .  A
C635        H640   1.084       .  S
C636        C637   1.407       .  A
C636        C641   1.477       .  S
C637        C638   1.403       .  A
C637        N642   1.437       .  S
C638        H643   1.084       .  S
N639        H659   1.045       .  S
N639        H660   1.046       .  S
C641        C644   1.401       .  A
C641        C648   1.404       .  A
N642        H657   1.045       .  S
N642        H658   1.046       .  S
C644        C645   1.404       .  A
C644        H649   1.080       .  S
C645        C646   1.412       .  A
C645        N650   1.437       .  S
C646        C647   1.412       .  A
C647        C648   1.405       .  A
C647        H651   1.083       .  S
C648        N652   1.438       .  S
N650        H653   1.045       .  S
N650        H654   1.045       .  S
N652        H655   1.045       .  S
N652        H656   1.046       .  S
C661        C662   1.413       .  A
C661        C666   1.402       .  A
C662        C663   1.395       .  A
C662        N667   1.433       .  S
C663        C664   1.400       .  A
C663        H668   1.083       .  S
C664        C665   1.408       .  A
C664        C669   1.472       .  S
C665        C666   1.406       .  A
C665        N670   1.438       .  S
C666        H671   1.084       .  S
N667        H687   1.045       .  S
N667        H688   1.044       .  S
C669        C672   1.402       .  A
C669        C676   1.408       .  A
N670        H685   1.046       .  S
N670        H686   1.043       .  S
C672        C673   1.404       .  A
C672        H677   1.084       .  S
C673        C674   1.409       .  A
C673        N678   1.438       .  S
C674        C675   1.403       .  A
C675        C676   1.401       .  A
C675        H679   1.084       .  S
C676        N680   1.438       .  S
N678        H681   1.045       .  S
N678        H682   1.045       .  S
N680        H683   1.046       .  S
N680        H684   1.043       .  S
C689        C690   1.406       .  A
C689        C694   1.402       .  A
C690        C691   1.403       .  A
C690        N695   1.432       .  S
C691        C692   1.407       .  A
C691        H696   1.084       .  S
C692        C693   1.417       .  A
C692        C697   1.490       .  S
C693        C694   1.399       .  A
C693        N698   1.432       .  S
C694        H699   1.083       .  S
N695        H715   1.045       .  S
N695        H716   1.046       .  S
C697        C700   1.404       .  A
C697        C704   1.414       .  A
N698        H713   1.043       .  S
N698        H714   1.044       .  S
C700        C701   1.409       .  A
C700        H705   1.082       .  S
C701        C702   1.412       .  A
C701        N706   1.437       .  S
C702        C703   1.401       .  A
C703        C704   1.401       .  A
C703        H707   1.084       .  S
C704        N708   1.437       .  S
N706        H709   1.045       .  S
N706        H710   1.045       .  S
N708        H711   1.045       .  S
N708        H712   1.042       .  S
C717        C718   1.406       .  A
C717        C722   1.400       .  A
C718        C719   1.399       .  A
C718        N723   1.437       .  S
C719        C720   1.399       .  A
C719        H724   1.084       .  S
C720        C721   1.407       .  A
C720        C725   1.466       .  S
C721        C722   1.401       .  A
C721        N726   1.437       .  S
C722        H727   1.084       .  S
N723        H743   1.045       .  S
N723        H744   1.046       .  S
C725        C728   1.399       .  A
C725        C732   1.402       .  A
N726        H741   1.046       .  S
N726        H742   1.046       .  S
C728        C729   1.402       .  A
C728        H733   1.081       .  S
C729        C730   1.415       .  A
C729        N734   1.438       .  S
C730        C731   1.409       .  A
C731        C732   1.400       .  A
C731        H735   1.083       .  S
C732        N736   1.438       .  S
N734        H737   1.046       .  S
N734        H738   1.046       .  S
N736        H739   1.045       .  S
N736        H740   1.046       .  S
C745        C746   1.412       .  A
C745        C750   1.391       .  A
C745       C1461   1.466       .  S
C746        C747   1.400       .  A
C746       C1433   1.480       .  S
C747        C748   1.404       .  A
C747        H752   1.084       .  S
C748        C749   1.418       .  A
C748       C1377   1.482       .  S
C749        C750   1.393       .  A
C749       C1418   1.477       .  S
C750        H751   1.085       .  S
Zr753       O754   2.443       .  S
Zr753       O755   2.443       .  S
Zr753       O756   2.435       .  S
Zr753       O759   2.427       .  S
Zr753       O761   2.382       .  S
Zr753       O762   2.384       .  S
Zr753       O763   2.410       .  S
Zr753       O764   2.402       .  S
O754        H810   0.991       .  S
O754        H818   0.990       .  S
O755        C775   1.284       .  A
O756        C777   1.283       .  A
O757       Zr767   2.404       .  S
O757        C776   1.281       .  A
O758       Zr766   2.418       .  S
O758        C777   1.282       .  A
O759        C776   1.284       .  A
O760       Zr768   2.421       .  S
O760        C775   1.283       .  A
O761       Zr766   2.391       .  S
O761       Zr768   2.377       .  S
O762       Zr767   2.387       .  S
O762       Zr768   2.369       .  S
O762        H797   0.966       .  S
O763       Zr766   2.401       .  S
O763       Zr783   2.395       .  S
O763        H800   0.965       .  S
O764       Zr767   2.390       .  S
O764       Zr783   2.388       .  S
Zr765       O790   2.441       .  S
Zr765       O784   2.455       .  S
Zr765       O792   2.428       .  S
Zr765       O780   2.418       .  S
Zr765       O771   2.403       .  S
Zr765       O772   2.409       .  S
Zr765       O773   2.380       .  S
Zr765       O774   2.377       .  S
Zr766       O785   2.437       .  S
Zr766       O778   2.437       .  S
Zr766       O779   2.430       .  S
Zr766       O772   2.392       .  S
Zr766       O773   2.393       .  S
Zr767       O769   2.437       .  S
Zr767       O791   2.435       .  S
Zr767       O793   2.418       .  S
Zr767       O771   2.387       .  S
Zr767       O774   2.388       .  S
Zr768       O794   2.436       .  S
Zr768       O795   2.434       .  S
Zr768       O770   2.436       .  S
Zr768       O771   2.395       .  S
Zr768       O772   2.393       .  S
O769        H806   0.990       .  S
O770        H801   0.990       .  S
O770        H815   0.990       .  S
O772        H798   0.965       .  S
O773       Zr783   2.376       .  S
O774       Zr783   2.373       .  S
O774        H799   0.966       .  S
C775        C855   1.475       .  S
C776       C1474   1.478       .  S
C777       C1349   1.481       .  S
O778        H814   0.990       .  S
O779        C781   1.283       .  A
O780        C781   1.283       .  A
C781       C1334   1.486       .  S
O782       Zr783   2.438       .  S
O782        H811   0.991       .  S
Zr783       O786   2.437       .  S
Zr783       O787   2.438       .  S
Zr783       O788   2.423       .  S
O784        C789   1.287       .  A
O785        H802   0.990       .  S
O785        H817   0.991       .  S
O786        H803   0.990       .  S
O787        H807   0.990       .  S
O787        H816   0.990       .  S
O788        C789   1.284       .  A
C789        C841   1.481       .  S
O790        H809   0.990       .  S
O790        H813   0.990       .  S
O791        H805   0.990       .  S
O791        H812   0.990       .  S
O792        C796   1.282       .  A
O793        C796   1.281       .  A
O794        H804   0.990       .  S
O795        H808   0.990       .  S
C796       C1293   1.465       .  S
Zr819       O820   2.444       .  S
Zr819       O821   2.461       .  S
Zr819       O822   2.442       .  S
Zr819       O825   2.437       .  S
Zr819       O827   2.381       .  S
Zr819       O828   2.385       .  S
O820        H876   0.991       .  S
O820        H884   0.991       .  S
O821        C841   1.288       .  A
O822        C843   1.284       .  A
O823       Zr833   2.423       .  S
O823        C842   1.282       .  A
O824       Zr832   2.404   1_565  S
O824        C843   1.279       .  A
O825        C842   1.284       .  A
O826       Zr834   2.414       .  S
O826        C841   1.281       .  A
O827       Zr832   2.396   1_565  S
O827       Zr834   2.378       .  S
O828       Zr833   2.389       .  S
O828       Zr834   2.379       .  S
O828        H863   0.967       .  S
O829       Zr849   2.392       .  S
O829        H866   0.965       .  S
O830       Zr849   2.388       .  S
Zr831       O856   2.442       .  S
Zr831       O850   2.451       .  S
Zr831       O858   2.447       .  S
Zr831       O846   2.437       .  S
Zr831       O839   2.381       .  S
Zr831       O840   2.383       .  S
Zr832       O844   2.435   1_545  S
Zr832       O838   2.391   1_545  S
Zr833       O857   2.441       .  S
Zr833       O837   2.392       .  S
Zr834       O860   2.436       .  S
Zr834       O861   2.435       .  S
Zr834       O836   2.437       .  S
Zr834       O837   2.389       .  S
Zr834       O838   2.390       .  S
O835        H872   0.990       .  S
O836        H867   0.990       .  S
O836        H881   0.990       .  S
O838        H864   0.966       .  S
O839       Zr849   2.373       .  S
O840       Zr849   2.380       .  S
O840        H865   0.966       .  S
C842       C1237   1.465       .  S
C843       C1209   1.476       .  S
O844        H880   0.990       .  S
O845        C847   1.284       .  A
O846        C847   1.285       .  A
C847       C1446   1.477       .  S
O848       Zr849   2.438       .  S
O848        H877   0.991       .  S
Zr849       O852   2.437       .  S
Zr849       O853   2.439       .  S
Zr849       O854   2.412       .  S
O850        C855   1.286       .  A
O851        H868   0.990       .  S
O851        H883   0.990       .  S
O852        H869   0.990       .  S
O853        H873   0.990       .  S
O853        H882   0.990       .  S
O854        C855   1.281       .  A
O856        H875   0.991       .  S
O856        H879   0.990       .  S
O857        H871   0.990       .  S
O857        H878   0.990       .  S
O858        C862   1.285       .  A
O859        C862   1.280       .  A
O860        H870   0.990       .  S
O861        H874   0.990       .  S
C862       C1265   1.469       .  S
C885        C886   1.415       .  A
C885        C890   1.396       .  A
C885       C1278   1.475       .  S
C886        C887   1.398       .  A
C886       C1362   1.477       .  S
C887        C888   1.396       .  A
C887        H892   1.084       .  S
C888        C889   1.413       .  A
C888       C1166   1.476       .  S
C889        C890   1.396       .  A
C889       C1194   1.470       .  S
C890        H891   1.084       .  S
Zr893       O894   2.441       .  S
Zr893       O895   2.448       .  S
Zr893       O896   2.441       .  S
Zr893       O899   2.437   1_455  S
Zr893       O901   2.385       .  S
Zr893       O902   2.381       .  S
Zr893       O903   2.411       .  S
Zr893       O904   2.403       .  S
O894        H950   0.990       .  S
O894        H958   0.990       .  S
O895        C915   1.286       .  A
O896        C917   1.284       .  A
O897       Zr907   2.409       .  S
O897        C916   1.279       .  A
O898       Zr906   2.427       .  S
O898        C917   1.283       .  A
O899        C916   1.285       .  A
O900       Zr908   2.427       .  S
O900        C915   1.283       .  A
O901       Zr906   2.399       .  S
O901       Zr908   2.377       .  S
O902       Zr907   2.388   1_455  S
O902       Zr908   2.373       .  S
O902        H937   0.967       .  S
O903       Zr906   2.399       .  S
O903       Zr923   2.393       .  S
O903        H940   0.965       .  S
O904       Zr907   2.385   1_455  S
O904       Zr923   2.395       .  S
Zr905       O930   2.440   1_556  S
Zr905       O924   2.450       .  S
Zr905       O932   2.425   1_456  S
Zr905       O920   2.434   1_556  S
Zr905       O911   2.404       .  S
Zr905       O912   2.410       .  S
Zr905       O913   2.374       .  S
Zr905       O914   2.380       .  S
Zr906       O925   2.435       .  S
Zr906       O918   2.435       .  S
Zr906       O919   2.430       .  S
Zr906       O912   2.399       .  S
Zr906       O913   2.387       .  S
Zr907       O909   2.435       .  S
Zr907       O931   2.438       .  S
Zr907       O933   2.408       .  S
Zr907       O911   2.387   1_655  S
Zr907       O914   2.385   1_655  S
Zr908       O934   2.437   1_556  S
Zr908       O935   2.436   1_556  S
Zr908       O910   2.436   1_556  S
Zr908       O911   2.394       .  S
Zr908       O912   2.400       .  S
O909        H946   0.990       .  S
O910        H941   0.990       .  S
O910        H955   0.990   1_554  S
O912        H938   0.966   1_556  S
O913       Zr923   2.373       .  S
O914       Zr923   2.375       .  S
O914        H939   0.966       .  S
C915        C981   1.480       .  S
C916       C1405   1.465       .  S
C917       C1153   1.470       .  S
O918        H954   0.990       .  S
O919        C921   1.284   1_556  A
O920        C921   1.284       .  A
C921       C1138   1.477       .  S
O922       Zr923   2.438       .  S
O922        H951   0.990       .  S
Zr923       O926   2.436       .  S
Zr923       O927   2.439   1_455  S
Zr923       O928   2.420       .  S
O924        C929   1.286       .  A
O925        H942   0.990       .  S
O925        H957   0.989       .  S
O926        H943   0.990       .  S
O927        H947   0.990       .  S
O927        H956   0.990       .  S
O928        C929   1.283       .  A
C929        C995   1.477       .  S
O930        H949   0.990       .  S
O930        H953   0.990       .  S
O931        H945   0.990       .  S
O931        H952   0.990       .  S
O932        C936   1.283       .  A
O933        C936   1.281   1_556  A
O934        H944   0.991       .  S
O935        H948   0.990       .  S
C936       C1097   1.476       .  S
Zr959       O960   2.441       .  S
Zr959       O961   2.459       .  S
Zr959       O962   2.454   1_455  S
Zr959       O965   2.437       .  S
Zr959       O967   2.377       .  S
Zr959       O968   2.391       .  S
O960       H1016   0.990       .  S
O960       H1024   0.990       .  S
O961        C981   1.287       .  A
O962        C983   1.287       .  A
O963        C982   1.281       .  A
O964        C983   1.279       .  A
O965        C982   1.284       .  A
O966       Zr974   2.413       .  S
O966        C981   1.280       .  A
O967       Zr974   2.379       .  S
O968       Zr974   2.382       .  S
O968       H1003   0.966       .  S
O969       Zr972   2.399   1_455  S
O969       Zr989   2.393   1_545  S
O969       H1006   0.966   1_445  S
O970       Zr973   2.387   1_565  S
O970       Zr989   2.384       .  S
Zr971       O996   2.443   1_556  S
Zr971       O990   2.455       .  S
Zr971       O998   2.423       .  S
Zr971       O986   2.443   1_556  S
Zr971       O979   2.374       .  S
Zr971       O980   2.381       .  S
Zr972       O991   2.436   1_545  S
Zr972       O985   2.408   1_546  S
Zr972       O979   2.390   1_645  S
Zr973       O975   2.436   1_545  S
Zr973       O999   2.419   1_545  S
Zr973       O980   2.387   1_545  S
Zr974      O1000   2.437       .  S
Zr974      O1001   2.436   1_556  S
Zr974       O976   2.437   1_556  S
Zr974       O977   2.392       .  S
Zr974       O978   2.391       .  S
O975       H1012   0.990       .  S
O976       H1007   0.990       .  S
O976       H1021   0.990       .  S
O978       H1004   0.964   1_556  S
O979       Zr989   2.376       .  S
O980       Zr989   2.374       .  S
O980       H1005   0.967       .  S
C982       C1181   1.468       .  S
C983       C1390   1.484       .  S
O984       H1020   0.990   1_556  S
O985        C987   1.280       .  A
O986        C987   1.284   1_455  A
C987       C1054   1.470       .  S
O988       Zr989   2.437       .  S
O988       H1017   0.991       .  S
Zr989       O992   2.436   1_455  S
Zr989       O993   2.440       .  S
Zr989       O994   2.415       .  S
O990        C995   1.287       .  A
O991       H1008   0.990       .  S
O991       H1023   0.990       .  S
O992       H1009   0.990       .  S
O993       H1013   0.990       .  S
O993       H1022   0.990       .  S
O994        C995   1.281       .  A
O996       H1015   0.991       .  S
O996       H1019   0.990       .  S
O997       H1011   0.990       .  S
O997       H1018   0.990       .  S
O998       C1002   1.283       .  A
O999       C1002   1.283       .  A
O1000      H1010   0.990       .  S
O1001      H1014   0.990       .  S
C1002      C1069   1.484   1_556  S
C1025      C1026   1.418       .  A
C1025      C1030   1.399       .  A
C1025      C1321   1.480       .  S
C1026      C1027   1.399       .  A
C1026      C1250   1.477       .  S
C1027      C1028   1.398       .  A
C1027      H1032   1.084       .  S
C1028      C1029   1.413       .  A
C1028      C1082   1.474       .  S
C1029      C1030   1.396       .  A
C1029      C1125   1.477       .  S
C1030      H1031   1.084       .  S
C1033      C1034   1.415       .  A
C1033      C1038   1.401       .  A
C1033      C1222   1.476       .  S
C1034      C1035   1.394       .  A
C1034      C1306   1.477       .  S
C1035      C1036   1.394       .  A
C1035      H1040   1.085       .  S
C1036      C1037   1.415       .  A
C1036      C1110   1.469       .  S
C1037      C1038   1.399       .  A
C1037      C1041   1.483       .  S
C1038      H1039   1.084       .  S
C1041      C1042   1.406       .  A
C1041      C1046   1.404       .  A
C1042      C1043   1.401       .  A
C1042      N1047   1.432       .  S
C1043      C1044   1.403       .  A
C1043      H1048   1.084       .  S
C1044      C1045   1.409       .  A
C1044      C1049   1.478       .  S
C1045      C1046   1.405       .  A
C1045      N1050   1.437       .  S
C1046      H1051   1.083       .  S
N1047      H1067   1.045       .  S
N1047      H1068   1.045       .  S
C1049      C1052   1.403       .  A
C1049      C1056   1.411       .  A
N1050      H1065   1.046       .  S
N1050      H1066   1.045       .  S
C1052      C1053   1.407       .  A
C1052      H1057   1.083       .  S
C1053      C1054   1.411       .  A
C1053      N1058   1.438   1_655  S
C1054      C1055   1.400       .  A
C1055      C1056   1.400       .  A
C1055      H1059   1.084       .  S
C1056      N1060   1.438       .  S
N1058      H1061   1.046       .  S
N1058      H1062   1.046       .  S
N1060      H1063   1.045       .  S
N1060      H1064   1.044       .  S
C1069      C1070   1.418       .  A
C1069      C1074   1.409   1_554  A
C1070      C1071   1.402       .  A
C1070      N1075   1.438       .  S
C1071      C1072   1.398       .  A
C1071      H1076   1.084       .  S
C1072      C1073   1.403       .  A
C1072      C1077   1.467       .  S
C1073      C1074   1.401   1_554  A
C1073      N1078   1.438       .  S
C1074      H1079   1.083       .  S
N1075      H1095   1.046       .  S
N1075      H1096   1.046       .  S
C1077      C1080   1.398       .  A
C1077      C1084   1.407       .  A
N1078      H1093   1.046   1_554  S
N1078      H1094   1.046       .  S
C1080      C1081   1.397       .  A
C1080      H1085   1.084       .  S
C1081      C1082   1.416       .  A
C1081      N1086   1.438       .  S
C1082      C1083   1.401       .  A
C1083      C1084   1.401       .  A
C1083      H1087   1.084       .  S
C1084      N1088   1.438       .  S
N1086      H1089   1.045       .  S
N1086      H1090   1.044       .  S
N1088      H1091   1.046       .  S
N1088      H1092   1.045       .  S
C1097      C1098   1.414       .  A
C1097      C1102   1.407       .  A
C1098      C1099   1.403       .  A
C1098      N1103   1.438       .  S
C1099      C1100   1.400       .  A
C1099      H1104   1.083       .  S
C1100      C1101   1.404       .  A
C1100      C1105   1.466       .  S
C1101      C1102   1.399       .  A
C1101      N1106   1.438       .  S
C1102      H1107   1.084       .  S
N1103      H1123   1.046       .  S
N1103      H1124   1.046       .  S
C1105      C1108   1.400       .  A
C1105      C1112   1.414       .  A
N1106      H1121   1.046       .  S
N1106      H1122   1.045       .  S
C1108      C1109   1.396       .  A
C1108      H1113   1.084       .  S
C1109      C1110   1.413       .  A
C1109      N1114   1.438       .  S
C1110      C1111   1.399       .  A
C1111      C1112   1.395       .  A
C1111      H1115   1.084       .  S
C1112      N1116   1.439       .  S
N1114      H1117   1.045       .  S
N1114      H1118   1.044       .  S
N1116      H1119   1.046       .  S
N1116      H1120   1.043       .  S
C1125      C1126   1.408       .  A
C1125      C1130   1.398       .  A
C1126      C1127   1.404       .  A
C1126      N1131   1.437       .  S
C1127      C1128   1.404       .  A
C1127      H1132   1.083       .  S
C1128      C1129   1.413       .  A
C1128      C1133   1.483       .  S
C1129      C1130   1.402       .  A
C1129      N1134   1.438       .  S
C1130      H1135   1.084       .  S
N1131      H1151   1.045       .  S
N1131      H1152   1.046       .  S
C1133      C1136   1.404       .  A
C1133      C1140   1.410       .  A
N1134      H1149   1.046       .  S
N1134      H1150   1.045       .  S
C1136      C1137   1.404       .  A
C1136      H1141   1.084       .  S
C1137      C1138   1.412       .  A
C1137      N1142   1.438   1_554  S
C1138      C1139   1.404       .  A
C1139      C1140   1.405       .  A
C1139      H1143   1.084       .  S
C1140      N1144   1.438       .  S
N1142      H1145   1.046       .  S
N1142      H1146   1.045       .  S
N1144      H1147   1.046       .  S
N1144      H1148   1.045       .  S
C1153      C1154   1.410       .  A
C1153      C1158   1.400       .  A
C1154      C1155   1.402       .  A
C1154      N1159   1.437       .  S
C1155      C1156   1.401       .  A
C1155      H1160   1.084       .  S
C1156      C1157   1.418       .  A
C1156      C1161   1.478       .  S
C1157      C1158   1.402       .  A
C1157      N1162   1.439       .  S
C1158      H1163   1.084       .  S
N1159      H1179   1.044       .  S
N1159      H1180   1.046       .  S
C1161      C1164   1.404       .  A
C1161      C1168   1.418       .  A
N1162      H1177   1.045       .  S
N1162      H1178   1.042       .  S
C1164      C1165   1.404       .  A
C1164      H1169   1.084       .  S
C1165      C1166   1.408       .  A
C1165      N1170   1.438       .  S
C1166      C1167   1.398       .  A
C1167      C1168   1.398       .  A
C1167      H1171   1.083       .  S
C1168      N1172   1.440       .  S
N1170      H1173   1.046       .  S
N1170      H1174   1.045       .  S
N1172      H1175   1.045       .  S
N1172      H1176   1.042       .  S
C1181      C1182   1.412       .  A
C1181      C1186   1.402       .  A
C1182      C1183   1.396       .  A
C1182      N1187   1.438       .  S
C1183      C1184   1.398       .  A
C1183      H1188   1.084       .  S
C1184      C1185   1.411       .  A
C1184      C1189   1.472       .  S
C1185      C1186   1.404       .  A
C1185      N1190   1.437       .  S
C1186      H1191   1.084       .  S
C1189      C1192   1.400       .  A
C1189      C1196   1.412       .  A
N1190      H1205   1.046       .  S
N1190      H1206   1.044       .  S
C1192      C1193   1.399       .  A
C1192      H1197   1.084       .  S
C1193      C1194   1.415       .  A
C1193      N1198   1.438       .  S
C1194      C1195   1.398       .  A
C1195      C1196   1.397       .  A
C1195      H1199   1.084       .  S
C1196      N1200   1.439       .  S
N1198      H1201   1.045       .  S
N1198      H1202   1.043       .  S
N1200      H1203   1.046       .  S
N1200      H1204   1.045       .  S
C1209      C1210   1.412       .  A
C1209      C1214   1.407       .  A
C1210      C1211   1.402       .  A
C1210      N1215   1.437       .  S
C1211      C1212   1.401       .  A
C1211      H1216   1.081       .  S
C1212      C1213   1.405       .  A
C1212      C1217   1.474       .  S
C1213      C1214   1.402       .  A
C1213      N1218   1.437       .  S
C1214      H1219   1.084       .  S
N1215      H1235   1.045       .  S
N1215      H1236   1.045       .  S
C1217      C1220   1.401       .  A
C1217      C1224   1.413       .  A
N1218      H1233   1.045   1_565  S
N1218      H1234   1.046       .  S
C1220      C1221   1.397       .  A
C1220      H1225   1.084       .  S
C1221      C1222   1.416       .  A
C1221      N1226   1.439       .  S
C1222      C1223   1.403       .  A
C1223      C1224   1.397       .  A
C1223      H1227   1.084       .  S
C1224      N1228   1.438       .  S
N1226      H1229   1.046       .  S
N1226      H1230   1.041       .  S
N1228      H1231   1.045       .  S
N1228      H1232   1.043       .  S
C1237      C1238   1.406       .  A
C1237      C1242   1.403       .  A
C1238      C1239   1.403       .  A
C1238      N1243   1.438       .  S
C1239      C1240   1.404       .  A
C1239      H1244   1.084       .  S
C1240      C1241   1.407       .  A
C1240      C1245   1.476       .  S
C1241      C1242   1.406       .  A
C1241      N1246   1.437       .  S
C1242      H1247   1.084       .  S
N1243      H1263   1.045       .  S
N1243      H1264   1.046       .  S
C1245      C1248   1.403       .  A
C1245      C1252   1.409       .  A
N1246      H1261   1.045   1_565  S
N1246      H1262   1.046       .  S
C1248      C1249   1.404       .  A
C1248      H1253   1.084       .  S
C1249      C1250   1.410       .  A
C1249      N1254   1.439       .  S
C1250      C1251   1.403       .  A
C1251      C1252   1.395       .  A
C1251      H1255   1.084       .  S
C1252      N1256   1.431       .  S
N1254      H1257   1.046       .  S
N1254      H1258   1.044       .  S
N1256      H1259   1.042       .  S
N1256      H1260   1.045       .  S
C1265      C1266   1.409       .  A
C1265      C1270   1.404       .  A
C1266      C1267   1.405       .  A
C1266      N1271   1.437       .  S
C1267      C1268   1.402       .  A
C1267      H1272   1.084       .  S
C1268      C1269   1.408       .  A
C1268      C1273   1.471       .  S
C1269      C1270   1.397       .  A
C1269      N1274   1.433       .  S
C1270      H1275   1.084       .  S
N1271      H1291   1.046       .  S
N1271      H1292   1.046       .  S
C1273      C1276   1.402       .  A
C1273      C1280   1.414       .  A
N1274      H1289   1.046       .  S
N1274      H1290   1.045       .  S
C1276      C1277   1.401       .  A
C1276      H1281   1.084       .  S
C1277      C1278   1.415       .  A
C1277      N1282   1.438       .  S
C1278      C1279   1.402       .  A
C1279      C1280   1.395       .  A
C1279      H1283   1.085       .  S
C1280      N1284   1.439       .  S
N1282      H1285   1.045       .  S
N1282      H1286   1.043       .  S
N1284      H1287   1.045       .  S
N1284      H1288   1.043       .  S
C1293      C1294   1.407       .  A
C1293      C1298   1.403       .  A
C1294      C1295   1.401       .  A
C1294      N1299   1.438       .  S
C1295      C1296   1.401       .  A
C1295      H1300   1.082       .  S
C1296      C1297   1.408       .  A
C1296      C1301   1.471       .  S
C1297      C1298   1.405       .  A
C1297      N1302   1.438       .  S
C1298      H1303   1.084       .  S
N1299      H1319   1.045       .  S
N1299      H1320   1.046       .  S
C1301      C1304   1.401       .  A
C1301      C1308   1.412       .  A
N1302      H1317   1.045       .  S
N1302      H1318   1.043       .  S
C1304      C1305   1.400       .  A
C1304      H1309   1.084       .  S
C1305      C1306   1.406       .  A
C1305      N1310   1.432       .  S
C1306      C1307   1.402       .  A
C1307      C1308   1.397       .  A
C1307      H1311   1.084       .  S
C1308      N1312   1.433       .  S
N1310      H1313   1.046       .  S
N1310      H1314   1.045       .  S
N1312      H1315   1.043       .  S
N1312      H1316   1.043       .  S
C1321      C1322   1.414       .  A
C1321      C1326   1.401       .  A
C1322      C1323   1.398       .  A
C1322      N1327   1.437       .  S
C1323      C1324   1.403       .  A
C1323      H1328   1.084       .  S
C1324      C1325   1.419       .  A
C1324      C1329   1.483       .  S
C1325      C1326   1.401       .  A
C1325      N1330   1.439       .  S
C1326      H1331   1.084       .  S
N1327      H1347   1.043       .  S
N1327      H1348   1.045       .  S
C1329      C1332   1.402       .  A
C1329      C1336   1.405       .  A
N1330      H1345   1.046       .  S
N1330      H1346   1.042       .  S
C1332      C1333   1.407       .  A
C1332      H1337   1.084       .  S
C1333      C1334   1.417       .  A
C1333      N1338   1.438       .  S
C1334      C1335   1.407       .  A
C1335      C1336   1.397       .  A
C1335      H1339   1.083       .  S
C1336      N1340   1.431       .  S
N1338      H1341   1.046       .  S
N1338      H1342   1.045       .  S
N1340      H1343   1.045       .  S
N1340      H1344   1.046       .  S
C1349      C1350   1.415       .  A
C1349      C1354   1.406       .  A
C1350      C1351   1.406       .  A
C1350      N1355   1.438       .  S
C1351      C1352   1.402       .  A
C1351      H1356   1.084       .  S
C1352      C1353   1.413       .  A
C1352      C1357   1.473       .  S
C1353      C1354   1.395       .  A
C1353      N1358   1.440       .  S
C1354      H1359   1.084       .  S
N1355      H1375   1.045       .  S
N1355      H1376   1.046       .  S
C1357      C1360   1.402       .  A
C1357      C1364   1.416       .  A
N1358      H1373   1.046       .  S
N1358      H1374   1.043       .  S
C1360      C1361   1.401       .  A
C1360      H1365   1.084       .  S
C1361      C1362   1.405       .  A
C1361      N1366   1.432       .  S
C1362      C1363   1.401       .  A
C1363      C1364   1.395       .  A
C1363      H1367   1.083       .  S
C1364      N1368   1.438       .  S
N1366      H1369   1.045       .  S
N1366      H1370   1.046       .  S
N1368      H1371   1.045       .  S
N1368      H1372   1.043       .  S
C1377      C1378   1.410       .  A
C1377      C1382   1.405       .  A
C1378      C1379   1.404       .  A
C1378      N1383   1.438       .  S
C1379      C1380   1.401       .  A
C1379      H1384   1.084       .  S
C1380      C1381   1.406       .  A
C1380      C1385   1.472       .  S
C1381      C1382   1.402       .  A
C1381      N1386   1.437       .  S
C1382      H1387   1.084       .  S
N1383      H1403   1.046       .  S
N1383      H1404   1.046       .  S
C1385      C1388   1.400       .  A
C1385      C1392   1.403       .  A
N1386      H1401   1.045       .  S
N1386      H1402   1.046       .  S
C1388      C1389   1.403       .  A
C1388      H1393   1.081       .  S
C1389      C1390   1.413       .  A
C1389      N1394   1.437       .  S
C1390      C1391   1.412       .  A
C1391      C1392   1.403       .  A
C1391      H1395   1.083       .  S
C1392      N1396   1.438       .  S
N1394      H1397   1.046       .  S
N1394      H1398   1.045       .  S
N1396      H1399   1.046       .  S
N1396      H1400   1.046       .  S
C1405      C1406   1.411       .  A
C1405      C1410   1.402       .  A
C1406      C1407   1.395       .  A
C1406      N1411   1.433       .  S
C1407      C1408   1.401       .  A
C1407      H1412   1.083       .  S
C1408      C1409   1.407       .  A
C1408      C1413   1.470       .  S
C1409      C1410   1.405       .  A
C1409      N1414   1.438       .  S
C1410      H1415   1.084       .  S
N1411      H1431   1.045       .  S
N1411      H1432   1.044       .  S
C1413      C1416   1.401       .  A
C1413      C1420   1.407       .  A
N1414      H1429   1.046       .  S
N1414      H1430   1.044       .  S
C1416      C1417   1.402       .  A
C1416      H1421   1.084       .  S
C1417      C1418   1.409       .  A
C1417      N1422   1.438       .  S
C1418      C1419   1.403       .  A
C1419      C1420   1.401       .  A
C1419      H1423   1.084       .  S
C1420      N1424   1.438       .  S
N1422      H1425   1.045       .  S
N1422      H1426   1.045       .  S
N1424      H1427   1.045       .  S
N1424      H1428   1.044       .  S
C1433      C1434   1.405       .  A
C1433      C1438   1.401       .  A
C1434      C1435   1.402       .  A
C1434      N1439   1.432       .  S
C1435      C1436   1.407       .  A
C1435      H1440   1.084       .  S
C1436      C1437   1.417       .  A
C1436      C1441   1.488       .  S
C1437      C1438   1.398       .  A
C1437      N1442   1.432       .  S
C1438      H1443   1.084       .  S
N1439      H1459   1.045       .  S
N1439      H1460   1.046       .  S
C1441      C1444   1.403       .  A
C1441      C1448   1.414       .  A
N1442      H1457   1.043       .  S
N1442      H1458   1.043       .  S
C1444      C1445   1.407       .  A
C1444      H1449   1.082       .  S
C1445      C1446   1.412       .  A
C1445      N1450   1.437       .  S
C1446      C1447   1.401       .  A
C1447      C1448   1.402       .  A
C1447      H1451   1.084       .  S
C1448      N1452   1.437       .  S
N1450      H1453   1.046       .  S
N1450      H1454   1.045       .  S
N1452      H1455   1.046       .  S
N1452      H1456   1.042       .  S
C1461      C1462   1.406       .  A
C1461      C1466   1.400       .  A
C1462      C1463   1.399       .  A
C1462      N1467   1.437       .  S
C1463      C1464   1.399       .  A
C1463      H1468   1.084       .  S
C1464      C1465   1.406       .  A
C1464      C1469   1.463       .  S
C1465      C1466   1.400       .  A
C1465      N1470   1.438       .  S
C1466      H1471   1.084       .  S
N1467      H1487   1.045       .  S
N1467      H1488   1.045       .  S
C1469      C1472   1.398       .  A
C1469      C1476   1.400       .  A
N1470      H1485   1.046       .  S
N1470      H1486   1.045       .  S
C1472      C1473   1.400       .  A
C1472      H1477   1.080       .  S
C1473      C1474   1.415       .  A
C1473      N1478   1.438       .  S
C1474      C1475   1.410       .  A
C1475      C1476   1.398       .  A
C1475      H1479   1.083       .  S
C1476      N1480   1.438       .  S
N1478      H1481   1.046       .  S
N1478      H1482   1.045       .  S
N1480      H1483   1.045       .  S
N1480      H1484   1.046       .  S
