geometry optimzed in LAMMPS
_audit_creation_date              2020-11-30 
_audit_creation_method            'lammps2cif' 
_symmetry_space_group_name_H-M    'P1' 
_symmetry_Int_Tables_number       1 
_symmetry_cell_setting            triclinic 
loop_ 
_symmetry_equiv_pos_as_xyz 
  x,y,z 
_cell_length_a                    40.13492034 
_cell_length_b                    40.32492471546522 
_cell_length_c                    36.756855675593535 
_cell_angle_alpha                 89.84392627271845 
_cell_angle_beta                  90.92660112819233 
_cell_angle_gamma                 91.10442008260851 
loop_ 
_atom_site_label 
_atom_site_type_symbol 
_atom_site_fract_x 
_atom_site_fract_y 
_atom_site_fract_z 
_atom_site_charge 
O1          O  0.46535382  0.46546095  0.05254511    -0.80000
O2          O  0.07282862  0.03690414  0.01423272    -0.80100
O3          O  0.02916406  0.46295890  0.04859753    -0.80100
O4          O  0.48374695  0.08501888  0.03026794    -0.80000
O5          O  0.07203384  0.47004714  0.01328241    -0.80100
O6          O  0.46391414  0.03751841  0.05222583    -0.80000
O7          O  0.03044157  0.03976143  0.05024363    -0.80000
O8          O  0.48139320  0.41886740  0.02699041    -0.80100
C9          C  0.46332610  0.43352002  0.04989938     1.09700
C10         C  0.06136733  0.04331914  0.04529093     1.09500
C11         C  0.06014929  0.46106665  0.04359761     1.09700
C12         C  0.46415450  0.06964799  0.05166193     1.09600
O13         O  0.43241627  0.03257884  0.47962177    -0.80000
O14         O  0.04695251  0.46858466  0.43975711    -0.80100
O15         O  0.47790532  0.44691348  0.45862869    -0.80000
O16         O  0.03657042  0.07585610  0.48040267    -0.80000
O17         O  0.04809057  0.03827860  0.43989154    -0.80100
O18         O  0.43365553  0.46632320  0.48138372    -0.80000
O19         O  0.47575161  0.06043084  0.46273589    -0.80000
O20         O  0.03540384  0.42981457  0.47967434    -0.80100
Co21       Co  0.45553554  0.50068374  0.01345545     1.51500
Co22       Co  0.05666354  0.00365931  0.47693465     1.51700
Co23       Co  0.50174777  0.45693307  0.00473542     1.51600
Co24       Co  0.50090221  0.04763508  0.50671072     1.51500
O25         O  0.50629901  0.50264320  0.98874022    -1.42000
C26         C  0.44526365  0.05443289  0.45967368     1.09600
C27         C  0.04782876  0.43843229  0.44940719     1.09700
C28         C  0.44703924  0.44839271  0.45814558     1.09600
C29         C  0.04797076  0.06844862  0.44938368     1.09600
O30         O  0.31826084  0.28120086  0.27105398    -0.80000
O31         O  0.17864346  0.22192297  0.25822373    -0.80100
O32         O  0.20979414  0.29620778  0.29795266    -0.80100
O33         O  0.26746054  0.17253163  0.28274175    -0.80000
O34         O  0.17399066  0.28806762  0.25271602    -0.80100
O35         O  0.29625919  0.21913255  0.29191991    -0.80000
O36         O  0.21941547  0.21749110  0.29887230    -0.80000
O37         O  0.27662074  0.29116214  0.30526224    -0.80100
C38         C  0.30720252  0.29423990  0.29945690     1.09700
C39         C  0.18863894  0.21523083  0.29058080     1.09500
C40         C  0.18029485  0.29649212  0.28550065     1.09700
C41         C  0.29068759  0.18810239  0.29939149     1.09600
O42         O  0.33222062  0.22734605  0.23182711    -0.80000
O43         O  0.21122743  0.28854855  0.18582236    -0.80100
O44         O  0.28472103  0.31955312  0.23102479    -0.80000
O45         O  0.21996714  0.18356127  0.23132105    -0.80000
O46         O  0.21362977  0.22006468  0.18855170    -0.80100
O47         O  0.29269632  0.27400581  0.19922398    -0.80000
O48         O  0.28566718  0.19959901  0.21823895    -0.80000
O49         O  0.21785762  0.32709391  0.22757905    -0.80100
Co50       Co  0.29139256  0.24658732  0.24345049     1.51500
Co51       Co  0.19755707  0.25462692  0.22177375     1.51700
Co52       Co  0.24722498  0.30562958  0.26526909     1.51600
Co53       Co  0.25231148  0.21178602  0.26020530     1.51500
O54         O  0.24322085  0.25878042  0.24630200    -1.42000
C55         C  0.31774522  0.20353347  0.21533967     1.09600
C56         C  0.21044865  0.31875336  0.19508186     1.09700
C57         C  0.29664241  0.30506402  0.20317002     1.09600
C58         C  0.21073685  0.19039278  0.19915396     1.09600
C59         C  0.14187723  0.07621030  0.08748039    -0.01900
C60         C  0.13082159  0.09424850  0.11746360     0.06700
C61         C  0.09701708  0.09250784  0.12653472    -0.07900
C62         C  0.07381592  0.07461960  0.10487395     0.04100
C63         C  0.08455665  0.05790743  0.07339287    -0.15100
C64         C  0.11896261  0.05805273  0.06609817    -0.08400
C65         C  0.15359723  0.11732410  0.13766426     0.05100
C66         C  0.16273068  0.14746369  0.12123531    -0.09600
C67         C  0.18264192  0.17099754  0.13981628     0.00100
C68         C  0.19354546  0.16466874  0.17604579    -0.00100
C69         C  0.18552663  0.13358552  0.19167191    -0.13100
C70         C  0.16585218  0.11000858  0.17276831     0.00400
C71         C  0.19144455  0.20116442  0.12068132     0.39700
C72         C  0.15877873  0.07833664  0.18964734     0.36300
C73         C  0.17652257  0.07688862  0.07745939     0.36100
C74         C  0.03928548  0.07525335  0.11508402     0.36800
N75         N  0.19869231  0.22517110  0.10513798    -0.44000
N76         N  0.15326725  0.05281187  0.20294538    -0.44400
N77         N  0.01179125  0.07601911  0.12397756    -0.41800
N78         N  0.20427570  0.07755137  0.06938362    -0.43200
H79         H  0.12806669  0.04496742  0.04259238     0.12900
H80         H  0.08853850  0.10631467  0.14981455     0.09400
H81         H  0.15385822  0.15277090  0.09383210     0.10500
H82         H  0.19397724  0.12783885  0.21908209     0.16300
C83         C  0.10860406  0.17764826  0.32739228    -0.01900
C84         C  0.11859501  0.16674229  0.36228918     0.06700
C85         C  0.15054236  0.17564727  0.37545011    -0.07900
C86         C  0.17314369  0.19336411  0.35367735     0.04100
C87         C  0.16421291  0.20168919  0.31733411    -0.15100
C88         C  0.13130352  0.19475190  0.30530869    -0.08400
C89         C  0.09748591  0.14336000  0.38388086     0.05100
C90         C  0.08900449  0.11236206  0.36883361    -0.09600
C91         C  0.07165108  0.08823370  0.38885707     0.00100
C92         C  0.06286379  0.09460360  0.42538647    -0.00100
C93         C  0.07026867  0.12628132  0.43989239    -0.13100
C94         C  0.08734151  0.15053424  0.41950338     0.00400
C95         C  0.06322249  0.05735772  0.37078973     0.39700
C96         C  0.09394509  0.18271876  0.43546495     0.36300
C97         C  0.07519893  0.17135579  0.31356702     0.36100
C98         C  0.20525041  0.20225724  0.36947592     0.36800
N99         N  0.05643402  0.03273214  0.35609828    -0.44000
N100        N  0.09923243  0.20861426  0.44802240    -0.44400
N101        N  0.23093088  0.20948522  0.38220578    -0.41800
N102        N  0.04839076  0.16641562  0.30255495    -0.43200
H103        H  0.12337896  0.20177392  0.27805141     0.12900
H104        H  0.15827069  0.16775253  0.40249213     0.09400
H105        H  0.09658871  0.10672743  0.34135258     0.10500
H106        H  0.06339301  0.13198380  0.46756398     0.16300
C107        C  0.15959512  0.35414537  0.11718140    -0.01900
C108        C  0.15639579  0.38746329  0.12790613     0.06700
C109        C  0.17545360  0.39943163  0.15748172    -0.07900
C110        C  0.19563775  0.37814188  0.17802315     0.04100
C111        C  0.19626532  0.34381368  0.16954386    -0.15100
C112        C  0.17925526  0.33267063  0.13797323    -0.08800
C113        C  0.13166445  0.40933993  0.10991785     0.05100
C114        C  0.09773097  0.40093676  0.11245591    -0.09600
C115        C  0.07347931  0.41850270  0.09297721     0.00100
C116        C  0.08307176  0.44564432  0.07071435    -0.00100
C117        C  0.11703505  0.45517902  0.07008908    -0.13100
C118        C  0.14124896  0.43724078  0.08923242     0.00400
C119        C  0.03971516  0.40583909  0.09430518     0.39700
C120        C  0.17590341  0.44655173  0.08526951     0.36300
C121        C  0.14257253  0.34137818  0.08509942     0.36100
C122        C  0.21486304  0.39231122  0.20789545     0.36800
N123        N  0.01319984  0.39431510  0.09625828    -0.44000
N124        N  0.20370428  0.45390184  0.08196421    -0.44400
N125        N  0.23034335  0.40371787  0.23174511    -0.41800
N126        N  0.12904990  0.33125520  0.05927330    -0.43200
H127        H  0.18002107  0.30675651  0.13027163     0.12900
H128        H  0.17371671  0.42524680  0.16523670     0.09400
H129        H  0.09030917  0.37956751  0.12862958     0.10500
H130        H  0.12494089  0.47588556  0.05318960     0.16300
C131        C  0.39303740  0.15907207  0.18083789    -0.01900
C132        C  0.38099497  0.14497986  0.14807133     0.06700
C133        C  0.34731033  0.14843392  0.13827795    -0.07900
C134        C  0.32581782  0.16656971  0.16004662     0.04100
C135        C  0.33803662  0.18156556  0.19244763    -0.15100
C136        C  0.37167212  0.17723706  0.20255156    -0.08400
C137        C  0.40297680  0.12609401  0.12387161     0.05100
C138        C  0.39784355  0.09181637  0.12070694    -0.09600
C139        C  0.41763254  0.07284975  0.09801254     0.00100
C140        C  0.44344858  0.08834527  0.07768068    -0.00100
C141        C  0.44833526  0.12289644  0.08092361    -0.13100
C142        C  0.42842804  0.14173822  0.10370511     0.00400
C143        C  0.40989314  0.03777686  0.09567197     0.39700
C144        C  0.43398580  0.17719590  0.10525518     0.36300
C145        C  0.42709806  0.15479387  0.19294668     0.36100
C146        C  0.29215056  0.17105213  0.14705528     0.36800
N147        N  0.40345438  0.00971695  0.09392853    -0.44000
N148        N  0.43845835  0.20561070  0.10650504    -0.44400
N149        N  0.26535021  0.17453674  0.13588984    -0.41800
N150        N  0.45439079  0.15128963  0.20261453    -0.43200
H151        H  0.38140698  0.18819716  0.22755408     0.12900
H152        H  0.33798340  0.13748972  0.11311101     0.09400
H153        H  0.37808688  0.07981023  0.13606100     0.10500
H154        H  0.46764626  0.13541568  0.06539557     0.16300
C155        C  0.38227013  0.32831058  0.35229179    -0.01900
C156        C  0.36944888  0.35750083  0.36743570     0.06700
C157        C  0.33633583  0.36580944  0.35974848    -0.07900
C158        C  0.31578367  0.34543528  0.33799174     0.04100
C159        C  0.32837671  0.31593591  0.32309931    -0.15100
C160        C  0.36178648  0.30793888  0.33005909    -0.08400
C161        C  0.38986454  0.38017383  0.39108864     0.05100
C162        C  0.41845724  0.39586548  0.37707106    -0.09600
C163        C  0.43727643  0.41860264  0.39811459     0.00100
C164        C  0.42688613  0.42675450  0.43350644    -0.00100
C165        C  0.39816852  0.41119785  0.44734345    -0.13100
C166        C  0.38003613  0.38770694  0.42679035     0.00400
C167        C  0.46678679  0.43354471  0.38253586     0.39700
C168        C  0.35228597  0.37056678  0.44351475     0.36300
C169        C  0.41597299  0.31827926  0.36008129     0.36100
C170        C  0.28231942  0.35635845  0.33015218     0.36800
N171        N  0.49049125  0.44541211  0.37006640    -0.44000
N172        N  0.33018689  0.35666492  0.45697352    -0.44400
N173        N  0.25556711  0.36520485  0.32386302    -0.41800
N174        N  0.44298636  0.31025461  0.36641147    -0.43200
H175        H  0.37170810  0.28550924  0.31863886     0.12900
H176        H  0.32656541  0.38855337  0.37064147     0.09400
H177        H  0.42598278  0.39044199  0.34957827     0.10500
H178        H  0.39058642  0.41642267  0.47491291     0.16300
C179        C  0.37905999  0.07715307  0.38986007    -0.01900
C180        C  0.38015539  0.11225038  0.39128586     0.06700
C181        C  0.40371324  0.12789795  0.41448231    -0.07900
C182        C  0.42621855  0.10945837  0.43535682     0.04100
C183        C  0.42424036  0.07444143  0.43493853    -0.15100
C184        C  0.40043894  0.05863131  0.41226847    -0.08400
C185        C  0.35705877  0.13309364  0.36900929     0.05100
C186        C  0.32249231  0.12683845  0.37030353    -0.09600
C187        C  0.30018004  0.14481927  0.34853228     0.00100
C188        C  0.31222533  0.17068600  0.32602134    -0.00100
C189        C  0.34655127  0.17799849  0.32600111    -0.13100
C190        C  0.36897176  0.15919846  0.34663088     0.00400
C191        C  0.26514331  0.13611033  0.34978194     0.39700
C192        C  0.40417834  0.16611591  0.34270662     0.36300
C193        C  0.35712245  0.05955006  0.36473810     0.36100
C194        C  0.45046548  0.12723717  0.45772738     0.36800
N195        N  0.23711139  0.12891436  0.35065488    -0.44000
N196        N  0.43239066  0.17166430  0.33961121    -0.44400
N197        N  0.47001187  0.14167846  0.47529135    -0.41800
N198        N  0.33962532  0.04548817  0.34447735    -0.43200
H199        H  0.39898927  0.03176462  0.41157636     0.12900
H200        H  0.40454574  0.15470941  0.41634525     0.09400
H201        H  0.31292375  0.10748556  0.38798375     0.10500
H202        H  0.35614124  0.19738253  0.30825997     0.16300
C203        C  0.06905933  0.35646339  0.40535505    -0.01900
C204        C  0.09518174  0.36609147  0.38210332     0.06700
C205        C  0.10581639  0.39940475  0.38146366    -0.07900
C206        C  0.09084375  0.42316881  0.40305486     0.04100
C207        C  0.06433867  0.41381169  0.42610391    -0.15100
C208        C  0.05403734  0.38026166  0.42728379    -0.08400
C209        C  0.11181252  0.34276591  0.35721263     0.05100
C210        C  0.11029658  0.34942709  0.31971322    -0.09600
C211        C  0.13089241  0.33309679  0.29545447     0.00100
C212        C  0.15378866  0.30961828  0.30871988    -0.00100
C213        C  0.15384394  0.30143389  0.34592839    -0.13100
C214        C  0.13299242  0.31763774  0.37016557     0.00400
C215        C  0.12994223  0.34312635  0.25770375     0.39700
C216        C  0.13524936  0.30935774  0.40834945     0.36300
C217        C  0.05670653  0.32263725  0.40648280     0.36100
C218        C  0.10413983  0.45671178  0.40176220     0.36800
N219        N  0.12902635  0.35134487  0.22752073    -0.44000
N220        N  0.13688888  0.30242861  0.43889344    -0.44400
N221        N  0.11482548  0.48355846  0.40074250    -0.41800
N222        N  0.04687364  0.29548928  0.40753501    -0.43200
H223        H  0.03382180  0.37270503  0.44487276     0.12900
H224        H  0.12616073  0.40687404  0.36395709     0.09400
H225        H  0.09417185  0.36872201  0.30964661     0.10500
H226        H  0.17109621  0.28318119  0.35627776     0.16300
C227        C  0.33997517  0.37787099  0.15575402    -0.01900
C228        C  0.36447172  0.36194543  0.13519442     0.06700
C229        C  0.36520826  0.32725455  0.13568368    -0.07900
C230        C  0.34214196  0.30835004  0.15537441     0.04100
C231        C  0.31846231  0.32408264  0.17748266    -0.15100
C232        C  0.31768085  0.35900123  0.17700607    -0.08400
C233        C  0.38980022  0.38050563  0.11311453     0.05100
C234        C  0.41018332  0.40507796  0.12973772    -0.09600
C235        C  0.43476984  0.42229186  0.11003620     0.00100
C236        C  0.44002565  0.41434921  0.07318554    -0.00100
C237        C  0.42033303  0.38926116  0.05684829    -0.13100
C238        C  0.39516669  0.37273024  0.07613856     0.00400
C239        C  0.45496764  0.44721238  0.12855687     0.39700
C240        C  0.37447922  0.34868158  0.05683857     0.36300
C241        C  0.33669915  0.41344630  0.15488402     0.36100
C242        C  0.34405641  0.27287247  0.15176526     0.36800
N243        N  0.47124144  0.46712350  0.14339613    -0.44000
N244        N  0.35801174  0.32930154  0.04141623    -0.44400
N245        N  0.34615859  0.24461982  0.14740559    -0.41800
N246        N  0.33406507  0.44196864  0.15410410    -0.43200
H247        H  0.29954084  0.37166681  0.19318938     0.12900
H248        H  0.38409499  0.31468020  0.12040682     0.09400
H249        H  0.40705680  0.41068403  0.15828070     0.10500
H250        H  0.42374943  0.38341701  0.02836228     0.16300
O251        O  0.46530020  0.46563881  0.55263686    -0.80000
O252        O  0.07319091  0.03681447  0.51372373    -0.80100
O253        O  0.02943652  0.46358984  0.54883738    -0.80100
O254        O  0.48325249  0.08486269  0.53046655    -0.80000
O255        O  0.07232425  0.47051021  0.51355258    -0.80100
O256        O  0.46300643  0.03748172  0.55241001    -0.80000
O257        O  0.03066703  0.03973589  0.54955680    -0.80000
O258        O  0.48122109  0.41917970  0.52659720    -0.80100
C259        C  0.46339494  0.43367850  0.54986329     1.09700
C260        C  0.06159994  0.04337928  0.54468768     1.09500
C261        C  0.06042317  0.46167533  0.54390257     1.09700
C262        C  0.46378196  0.06963234  0.55207301     1.09600
O263        O  0.43281799  0.03280067  0.97968385    -0.80000
O264        O  0.04633307  0.46869927  0.93952315    -0.80100
O265        O  0.47829427  0.44632820  0.95894081    -0.80000
O266        O  0.03612101  0.07617211  0.98116625    -0.80000
O267        O  0.04743534  0.03862175  0.94054615    -0.80100
O268        O  0.43395656  0.46621246  0.98110601    -0.80000
O269        O  0.47612895  0.06053464  0.96254608    -0.80000
O270        O  0.03479601  0.42970669  0.97916105    -0.80100
Co271      Co  0.45539422  0.50091531  0.51351762     1.51500
Co272      Co  0.05614762  0.00389022  0.97736587     1.51700
Co273      Co  0.50157400  0.45725039  0.50439386     1.51600
Co274      Co  0.50143186  0.04770989  0.00646838     1.51500
O275        O  0.50613679  0.50297964  0.48869269    -1.42000
C276        C  0.44559668  0.05466154  0.95970080     1.09600
C277        C  0.04718604  0.43849645  0.94893709     1.09700
C278        C  0.44744505  0.44810234  0.95810426     1.09600
C279        C  0.04748678  0.06876987  0.95011214     1.09600
O280        O  0.31784120  0.28173099  0.77098669    -0.80000
O281        O  0.17852452  0.22184081  0.75827657    -0.80100
O282        O  0.20936934  0.29650124  0.79761588    -0.80100
O283        O  0.26763994  0.17277624  0.78287570    -0.80000
O284        O  0.17364814  0.28799847  0.75236304    -0.80100
O285        O  0.29619109  0.21952916  0.79206937    -0.80000
O286        O  0.21932996  0.21747127  0.79889815    -0.80000
O287        O  0.27621523  0.29183189  0.80516106    -0.80100
C288        C  0.30679602  0.29485724  0.79933106     1.09700
C289        C  0.18855343  0.21512524  0.79062361     1.09500
C290        C  0.17989845  0.29666380  0.78507909     1.09700
C291        C  0.29074534  0.18847233  0.79959122     1.09600
O292        O  0.33213724  0.22810615  0.73204258    -0.80000
O293        O  0.21110681  0.28822740  0.68560864    -0.80100
O294        O  0.28434452  0.31990200  0.73077082    -0.80000
O295        O  0.22003807  0.18348866  0.73139774    -0.80000
O296        O  0.21383163  0.22002510  0.68871559    -0.80100
O297        O  0.29236157  0.27427632  0.69918339    -0.80000
O298        O  0.28588120  0.19989921  0.71841090    -0.80000
O299        O  0.21744827  0.32704813  0.72709407    -0.80100
Co300      Co  0.29117323  0.24695295  0.74352631     1.51500
Co301      Co  0.19742742  0.25450490  0.72170858     1.51700
Co302      Co  0.24682496  0.30592489  0.76499210     1.51600
Co303      Co  0.25230411  0.21191875  0.76026971     1.51500
O304        O  0.24298753  0.25891371  0.74636360    -1.42000
C305        C  0.31793859  0.20416287  0.71553923     1.09600
C306        C  0.21022030  0.31846472  0.69463216     1.09700
C307        C  0.29631192  0.30534885  0.70298644     1.09600
C308        C  0.21075746  0.19038446  0.69926282     1.09600
C309        C  0.14182970  0.07690723  0.58692093    -0.01900
C310        C  0.13061064  0.09491062  0.61685214     0.06700
C311        C  0.09678157  0.09307548  0.62578635    -0.07900
C312        C  0.07372533  0.07502734  0.60411227     0.04100
C313        C  0.08463692  0.05825904  0.57274293    -0.15100
C314        C  0.11905847  0.05859880  0.56551920    -0.08400
C315        C  0.15329526  0.11788587  0.63729095     0.05100
C316        C  0.16241979  0.14814069  0.62113667    -0.09600
C317        C  0.18235701  0.17151268  0.63991423     0.00100
C318        C  0.19333843  0.16487603  0.67606564    -0.00100
C319        C  0.18525140  0.13371751  0.69144508    -0.13100
C320        C  0.16551100  0.11031888  0.67234804     0.00400
C321        C  0.19105167  0.20186792  0.62106993     0.39700
C322        C  0.15828672  0.07857230  0.68898048     0.36300
C323        C  0.17650304  0.07771599  0.57701043     0.36100
C324        C  0.03917506  0.07547918  0.61425984     0.36800
N325        N  0.19813808  0.22606311  0.60579026    -0.44000
N326        N  0.15260701  0.05298667  0.70205587    -0.44400
N327        N  0.01167218  0.07610207  0.62314185    -0.41800
N328        N  0.20427587  0.07847083  0.56901335    -0.43200
H329        H  0.12829316  0.04550294  0.54208347     0.12900
H330        H  0.08818163  0.10686498  0.64902643     0.09400
H331        H  0.15352722  0.15366077  0.59378438     0.10500
H332        H  0.19372104  0.12777049  0.71880424     0.16300
C333        C  0.10871099  0.17714551  0.82764157    -0.01900
C334        C  0.11872357  0.16652405  0.86265325     0.06700
C335        C  0.15064132  0.17565774  0.87573028    -0.07900
C336        C  0.17315465  0.19337235  0.85382684     0.04100
C337        C  0.16419009  0.20147364  0.81742415    -0.15100
C338        C  0.13133156  0.19423888  0.80542912    -0.08400
C339        C  0.09764059  0.14323998  0.88446563     0.05100
C340        C  0.08894330  0.11225126  0.86953086    -0.09600
C341        C  0.07136079  0.08831712  0.88959154     0.00100
C342        C  0.06259376  0.09482219  0.92610693    -0.00100
C343        C  0.07030213  0.12645433  0.94055752    -0.13100
C344        C  0.08757322  0.15054370  0.92010007     0.00400
C345        C  0.06264236  0.05750168  0.87154134     0.39700
C346        C  0.09441050  0.18271064  0.93599516     0.36300
C347        C  0.07534731  0.17058011  0.81383302     0.36100
C348        C  0.20521154  0.20253003  0.86957185     0.36800
N349        N  0.05561573  0.03292550  0.85687016    -0.44000
N350        N  0.09988398  0.20858902  0.94851154    -0.44400
N351        N  0.23085700  0.20997488  0.88224135    -0.41800
N352        N  0.04857150  0.16539062  0.80285375    -0.43200
H353        H  0.12338572  0.20104210  0.77811810     0.12900
H354        H  0.15841609  0.16796899  0.90282671     0.09400
H355        H  0.09647771  0.10648474  0.84206263     0.10500
H356        H  0.06348183  0.13224865  0.96822198     0.16300
C357        C  0.15815379  0.35336824  0.61754085    -0.01900
C358        C  0.15616258  0.38700934  0.62750038     0.06700
C359        C  0.17636205  0.39913107  0.65610347    -0.07900
C360        C  0.19657091  0.37777402  0.67648503     0.04100
C361        C  0.19604959  0.34327541  0.66887955    -0.15100
C362        C  0.17784715  0.33184759  0.63821646    -0.08800
C363        C  0.13166626  0.40921733  0.60969554     0.05100
C364        C  0.09761941  0.40179608  0.61325476    -0.09600
C365        C  0.07347143  0.41975685  0.59408978     0.00100
C366        C  0.08332661  0.44623898  0.57102604    -0.00100
C367        C  0.11747605  0.45490467  0.56951596    -0.13100
C368        C  0.14155699  0.43659358  0.58837389     0.00400
C369        C  0.03942664  0.40820398  0.59677607     0.39700
C370        C  0.17632566  0.44494997  0.58347129     0.36300
C371        C  0.13988606  0.34032619  0.58638848     0.36100
C372        C  0.21711950  0.39205072  0.70524774     0.36800
N373        N  0.01268272  0.39754697  0.59994630    -0.44000
N374        N  0.20421694  0.45152418  0.57944417    -0.44400
N375        N  0.23367138  0.40353621  0.72819749    -0.41800
N376        N  0.12537733  0.32995208  0.56130767    -0.43200
H377        H  0.17768978  0.30573839  0.63122864     0.12900
H378        H  0.17554582  0.42516969  0.66322957     0.09400
H379        H  0.08997833  0.38091576  0.63003568     0.10500
H380        H  0.12560290  0.47515010  0.55209624     0.16300
C381        C  0.39424350  0.16211088  0.68000969    -0.01900
C382        C  0.38185101  0.14614135  0.64846304     0.06700
C383        C  0.34778693  0.14781097  0.63968643    -0.07900
C384        C  0.32613797  0.16587103  0.66131371     0.04100
C385        C  0.33856769  0.18248617  0.69266522    -0.15100
C386        C  0.37268958  0.18004431  0.70170302    -0.08400
C387        C  0.40381213  0.12697190  0.62457680     0.05100
C388        C  0.39981233  0.09246418  0.62346225    -0.09600
C389        C  0.41932108  0.07318099  0.60081761     0.00100
C390        C  0.44370143  0.08859844  0.57844801    -0.00100
C391        C  0.44761190  0.12336966  0.57986580    -0.13100
C392        C  0.42795157  0.14252537  0.60255929     0.00400
C393        C  0.41279239  0.03783132  0.60077861     0.39700
C394        C  0.43229436  0.17815607  0.60201164     0.36300
C395        C  0.42889012  0.16008093  0.69087395     0.36100
C396        C  0.29198517  0.16845258  0.64917165     0.36800
N397        N  0.40726942  0.00955402  0.60090716    -0.44000
N398        N  0.43580693  0.20670686  0.60156133    -0.44400
N399        N  0.26481011  0.17035283  0.63857693    -0.41800
N400        N  0.45666545  0.15845039  0.69952076    -0.43200
H401        H  0.38268600  0.19231911  0.72583133     0.12900
H402        H  0.33823826  0.13547528  0.61539511     0.09400
H403        H  0.38108948  0.08052566  0.64033227     0.10500
H404        H  0.46582262  0.13584171  0.56281621     0.16300
C405        C  0.38232501  0.32912056  0.85110436    -0.01900
C406        C  0.36956188  0.35816332  0.86663546     0.06700
C407        C  0.33630554  0.36633720  0.85952550    -0.07900
C408        C  0.31552176  0.34588885  0.83812409     0.04100
C409        C  0.32807305  0.31653833  0.82285400    -0.15100
C410        C  0.36163626  0.30874208  0.82913076    -0.08400
C411        C  0.39007541  0.38063454  0.89041455     0.05100
C412        C  0.41887614  0.39612918  0.87662199    -0.09600
C413        C  0.43786234  0.41852147  0.89793294     0.00100
C414        C  0.42733812  0.42664515  0.93327896    -0.00100
C415        C  0.39844350  0.41127663  0.94689520    -0.13100
C416        C  0.38022311  0.38801926  0.92614874     0.00400
C417        C  0.46774369  0.43305282  0.88273400     0.39700
C418        C  0.35238706  0.37090294  0.94274145     0.36300
C419        C  0.41617136  0.31919971  0.85825879     0.36100
C420        C  0.28181347  0.35653185  0.83116416     0.36800
N421        N  0.49177591  0.44455295  0.87060713    -0.44000
N422        N  0.33022137  0.35700049  0.95607171    -0.44400
N423        N  0.25485107  0.36513725  0.82562543    -0.41800
N424        N  0.44330291  0.31126149  0.86406007    -0.43200
H425        H  0.37152972  0.28643520  0.81739084     0.12900
H426        H  0.32655957  0.38896847  0.87071846     0.09400
H427        H  0.42647218  0.39077546  0.84914522     0.10500
H428        H  0.39080755  0.41642626  0.97446312     0.16300
C429        C  0.37912822  0.07759899  0.89023927    -0.01900
C430        C  0.38012248  0.11269474  0.89183968     0.06700
C431        C  0.40361817  0.12828591  0.91516618    -0.07900
C432        C  0.42617841  0.10980469  0.93595665     0.04100
C433        C  0.42443234  0.07478162  0.93518630    -0.15100
C434        C  0.40064737  0.05903158  0.91244759    -0.08400
C435        C  0.35702613  0.13358620  0.86956464     0.05100
C436        C  0.32245856  0.12729123  0.87071868    -0.09600
C437        C  0.30018444  0.14523731  0.84884284     0.00100
C438        C  0.31224712  0.17114414  0.82637895    -0.00100
C439        C  0.34656743  0.17851144  0.82651946    -0.13100
C440        C  0.36895785  0.15971996  0.84723152     0.00400
C441        C  0.26516698  0.13640571  0.84989485     0.39700
C442        C  0.40417212  0.16662365  0.84337711     0.36300
C443        C  0.35712353  0.06002933  0.86516344     0.36100
C444        C  0.45017813  0.12753815  0.95867773     0.36800
N445        N  0.23715516  0.12909978  0.85060039    -0.44000
N446        N  0.43239395  0.17213736  0.84031602    -0.44400
N447        N  0.46947644  0.14198395  0.97655809    -0.41800
N448        N  0.33955755  0.04597160  0.84496973    -0.43200
H449        H  0.39929871  0.03216635  0.91156454     0.12900
H450        H  0.40434567  0.15509489  0.91720771     0.09400
H451        H  0.31286297  0.10790773  0.88833645     0.10500
H452        H  0.35618459  0.19789969  0.80881438     0.16300
C453        C  0.06837541  0.35682494  0.90429161    -0.01900
C454        C  0.09463225  0.36654696  0.88126081     0.06700
C455        C  0.10527032  0.39986546  0.88084459    -0.07900
C456        C  0.09020954  0.42352767  0.90249053     0.04100
C457        C  0.06367046  0.41403640  0.92543564    -0.15100
C458        C  0.05332322  0.38049994  0.92633939    -0.08400
C459        C  0.11138302  0.34330893  0.85637456     0.05100
C460        C  0.11033522  0.35027684  0.81892567    -0.09600
C461        C  0.13095756  0.33386212  0.79477173     0.00100
C462        C  0.15336981  0.30996183  0.80809202    -0.00100
C463        C  0.15300121  0.30153670  0.84521577    -0.13100
C464        C  0.13214970  0.31784401  0.86935439     0.00400
C465        C  0.13056957  0.34421007  0.75711733     0.39700
C466        C  0.13401015  0.30928893  0.90748528     0.36300
C467        C  0.05588124  0.32303894  0.90503605     0.36100
C468        C  0.10342559  0.45710837  0.90133197     0.36800
N469        N  0.13009855  0.35270758  0.72702000    -0.44000
N470        N  0.13534345  0.30211931  0.93797660    -0.44400
N471        N  0.11402561  0.48399096  0.90040212    -0.41800
N472        N  0.04592935  0.29592277  0.90576996    -0.43200
H473        H  0.03304082  0.37286281  0.94379983     0.12900
H474        H  0.12567967  0.40742109  0.86346718     0.09400
H475        H  0.09454809  0.36983755  0.80883807     0.10500
H476        H  0.16993607  0.28299928  0.85558958     0.16300
C477        C  0.34027816  0.37795892  0.65574915    -0.01900
C478        C  0.36468401  0.36188488  0.63521641     0.06700
C479        C  0.36499249  0.32717265  0.63542982    -0.07900
C480        C  0.34164751  0.30841323  0.65493216     0.04100
C481        C  0.31822776  0.32428398  0.67726486    -0.15100
C482        C  0.31781504  0.35922608  0.67695637    -0.08400
C483        C  0.39017513  0.38034207  0.61322760     0.05100
C484        C  0.41104561  0.40441690  0.63004753    -0.09600
C485        C  0.43569500  0.42159079  0.61034842     0.00100
C486        C  0.44032408  0.41427951  0.57322932    -0.00100
C487        C  0.42020062  0.38961301  0.55672377    -0.13100
C488        C  0.39512101  0.37300256  0.57607418     0.00400
C489        C  0.45667982  0.44570534  0.62912638     0.39700
C490        C  0.37407355  0.34933412  0.55667351     0.36300
C491        C  0.33716242  0.41354784  0.65469732     0.36100
C492        C  0.34281570  0.27294318  0.65069387     0.36800
N493        N  0.47361224  0.46492430  0.64420443    -0.44000
N494        N  0.35731791  0.33024130  0.54118452    -0.44400
N495        N  0.34418488  0.24469944  0.64581733    -0.41800
N496        N  0.33461252  0.44207346  0.65365933    -0.43200
H497        H  0.29980610  0.37201352  0.69318365     0.12900
H498        H  0.38367494  0.31447428  0.61997877     0.09400
H499        H  0.40824891  0.40964319  0.65872920     0.10500
H500        H  0.42322606  0.38416249  0.52808645     0.16300
O501        O  0.46457773  0.96564490  0.05261371    -0.80000
O502        O  0.07243638  0.53645469  0.01313612    -0.80100
O503        O  0.02937780  0.96342350  0.04882248    -0.80100
O504        O  0.48348683  0.58488146  0.02996830    -0.80000
O505        O  0.07245874  0.97053839  0.01381677    -0.80100
O506        O  0.46381765  0.53735052  0.05206192    -0.80000
O507        O  0.03035462  0.53962139  0.04957146    -0.80000
O508        O  0.48033463  0.91898595  0.02695410    -0.80100
C509        C  0.46248910  0.93370039  0.05001107     1.09700
C510        C  0.06123264  0.54322480  0.04422072     1.09500
C511        C  0.06037222  0.96144920  0.04399222     1.09700
C512        C  0.46399349  0.56948403  0.05143595     1.09600
O513        O  0.43310226  0.53228186  0.47925745    -0.80000
O514        O  0.04777608  0.96931381  0.43961151    -0.80100
O515        O  0.47673752  0.94687939  0.45852121    -0.80000
O516        O  0.03525088  0.57549204  0.47958534    -0.80000
O517        O  0.04679810  0.53760013  0.43939599    -0.80100
O518        O  0.43261984  0.96661153  0.48130923    -0.80000
O519        O  0.47625083  0.56050192  0.46245976    -0.80000
O520        O  0.03591536  0.93029350  0.47911677    -0.80100
Co521      Co  0.45501968  0.00103805  0.01358188     1.51500
Co522      Co  0.05579029  0.50333213  0.47670484     1.51700
Co523      Co  0.50085052  0.95693614  0.00470102     1.51600
Co524      Co  0.50144545  0.54792455  0.50650894     1.51500
O525        O  0.50571322  0.00263609  0.98871807    -1.42000
C526        C  0.44581005  0.55421855  0.45930572     1.09600
C527        C  0.04839175  0.93907407  0.44891630     1.09700
C528        C  0.44588717  0.94868411  0.45798039     1.09600
C529        C  0.04656682  0.56784710  0.44859185     1.09600
O530        O  0.31790867  0.78041395  0.27160385    -0.80000
O531        O  0.17837687  0.72089245  0.25734326    -0.80100
O532        O  0.20934371  0.79504914  0.29810844    -0.80100
O533        O  0.26722051  0.67153769  0.28186984    -0.80000
O534        O  0.17359851  0.78715937  0.25274950    -0.80100
O535        O  0.29565069  0.71819930  0.29193123    -0.80000
O536        O  0.21893460  0.71618518  0.29816973    -0.80000
O537        O  0.27612443  0.78999272  0.30566955    -0.80100
C538        C  0.30668890  0.79337010  0.29996799     1.09700
C539        C  0.18821473  0.71389608  0.28968223     1.09500
C540        C  0.17989145  0.79558030  0.28554072     1.09700
C541        C  0.29023577  0.68705834  0.29894304     1.09600
O542        O  0.33206104  0.72672854  0.23217570    -0.80000
O543        O  0.21086265  0.78861200  0.18592231    -0.80100
O544        O  0.28447844  0.81895259  0.23171446    -0.80000
O545        O  0.21993713  0.68295490  0.23002107    -0.80000
O546        O  0.21378787  0.72006693  0.18784259    -0.80100
O547        O  0.29273671  0.77360877  0.19965230    -0.80000
O548        O  0.28552961  0.69930991  0.21773448    -0.80000
O549        O  0.21758806  0.82656560  0.22826433    -0.80100
Co550      Co  0.29115030  0.74593359  0.24365955     1.51500
Co551      Co  0.19734345  0.75413852  0.22143973     1.51700
Co552      Co  0.24686777  0.80476094  0.26570994     1.51600
Co553      Co  0.25200835  0.71096070  0.25962597     1.51500
O554        O  0.24292669  0.75810675  0.24621939    -1.42000
C555        C  0.31762190  0.70319215  0.21518086     1.09600
C556        C  0.21006946  0.81870002  0.19567450     1.09700
C557        C  0.29664307  0.80463979  0.20387302     1.09600
C558        C  0.21103065  0.69020919  0.19784228     1.09600
C559        C  0.14242235  0.57540688  0.08570722    -0.01900
C560        C  0.13170685  0.59464415  0.11492122     0.06700
C561        C  0.09781209  0.59430365  0.12360046    -0.07900
C562        C  0.07424654  0.57640958  0.10242962     0.04100
C563        C  0.08468898  0.55818114  0.07185825    -0.15100
C564        C  0.11912433  0.55716984  0.06484018    -0.08400
C565        C  0.15496059  0.61747734  0.13479243     0.05100
C566        C  0.16165956  0.64884377  0.11990460    -0.09600
C567        C  0.18146808  0.67229275  0.13875473     0.00100
C568        C  0.19447867  0.66469035  0.17388247    -0.00100
C569        C  0.18914216  0.63236421  0.18767128    -0.13100
C570        C  0.16979790  0.60880310  0.16831144     0.00400
C571        C  0.18771117  0.70381407  0.12114409     0.39700
C572        C  0.16550727  0.57584273  0.18314780     0.36300
C573        C  0.17706606  0.57513054  0.07575942     0.36100
C574        C  0.03969081  0.57877196  0.11205626     0.36800
N575        N  0.19287205  0.72894672  0.10682159    -0.44000
N576        N  0.16224623  0.54927834  0.19471439    -0.44400
N577        N  0.01221474  0.58107247  0.12057957    -0.41800
N578        N  0.20481733  0.57506009  0.06770263    -0.43200
H579        H  0.12796647  0.54307969  0.04190607     0.12900
H580        H  0.08959396  0.60915497  0.14621474     0.09400
H581        H  0.15092046  0.65517297  0.09356222     0.10500
H582        H  0.19944872  0.62558337  0.21403551     0.16300
C583        C  0.10793452  0.67622116  0.32595911    -0.01900
C584        C  0.11775827  0.66511977  0.36083609     0.06700
C585        C  0.14977647  0.67364953  0.37406576    -0.07900
C586        C  0.17255077  0.69130986  0.35245456     0.04100
C587        C  0.16370493  0.70004347  0.31619221    -0.15100
C588        C  0.13078636  0.69332900  0.30404122    -0.08400
C589        C  0.09631257  0.64206744  0.38246727     0.05100
C590        C  0.08738472  0.61112552  0.36753979    -0.09600
C591        C  0.06982803  0.58725508  0.38773886     0.00100
C592        C  0.06135428  0.59382156  0.42431615    -0.00100
C593        C  0.06909665  0.62548048  0.43864749    -0.13100
C594        C  0.08631044  0.64948915  0.41808205     0.00400
C595        C  0.06085297  0.55643322  0.36983423     0.39700
C596        C  0.09319117  0.68168916  0.43387761     0.36300
C597        C  0.07452454  0.67019257  0.31202177     0.36100
C598        C  0.20474181  0.69971599  0.36835803     0.36800
N599        N  0.05360775  0.53184021  0.35531092    -0.44000
N600        N  0.09865250  0.70759314  0.44633420    -0.44400
N601        N  0.23048873  0.70653286  0.38118863    -0.41800
N602        N  0.04771129  0.66544421  0.30093005    -0.43200
H603        H  0.12295096  0.70059516  0.27682492     0.12900
H604        H  0.15739796  0.66554817  0.40107103     0.09400
H605        H  0.09479029  0.60531904  0.34004680     0.10500
H606        H  0.06241455  0.63134085  0.46633411     0.16300
C607        C  0.16241110  0.85555527  0.11596093    -0.01900
C608        C  0.15652884  0.88791929  0.12840429     0.06700
C609        C  0.17275808  0.89917727  0.16012690    -0.07900
C610        C  0.19272252  0.87795608  0.18096892     0.04100
C611        C  0.19595117  0.84423533  0.17057253    -0.15100
C612        C  0.18177873  0.83400335  0.13705892    -0.08800
C613        C  0.13167907  0.90937454  0.11004786     0.05100
C614        C  0.09794325  0.89985765  0.11108076    -0.09600
C615        C  0.07364267  0.91764102  0.09192220     0.00100
C616        C  0.08305609  0.94579251  0.07111817    -0.00100
C617        C  0.11676494  0.95624113  0.07185273    -0.13100
C618        C  0.14097640  0.93837050  0.09107815     0.00400
C619        C  0.04000682  0.90452450  0.09232406     0.39700
C620        C  0.17540054  0.94917002  0.08929673     0.36300
C621        C  0.14860129  0.84393938  0.08167284     0.36100
C622        C  0.20867135  0.89155311  0.21328197     0.36800
N623        N  0.01355607  0.89274220  0.09361561    -0.44000
N624        N  0.20302008  0.95777161  0.08783568    -0.44400
N625        N  0.22146120  0.90256123  0.23911066    -0.41800
N626        N  0.13774302  0.83481057  0.05403040    -0.43200
H627        H  0.18466427  0.80870633  0.12785987     0.12900
H628        H  0.16890831  0.92433681  0.16926844     0.09400
H629        H  0.09072806  0.87771749  0.12608829     0.10500
H630        H  0.12447643  0.97778611  0.05612348     0.16300
C631        C  0.39269281  0.65830537  0.18092008    -0.01900
C632        C  0.38086737  0.64494804  0.14770008     0.06700
C633        C  0.34741035  0.64919588  0.13737208    -0.07900
C634        C  0.32591996  0.66732777  0.15914777     0.04100
C635        C  0.33792403  0.68144962  0.19210736    -0.15100
C636        C  0.37132672  0.67642639  0.20266442    -0.08400
C637        C  0.40284726  0.62601539  0.12356803     0.05100
C638        C  0.39754910  0.59177094  0.12027578    -0.09600
C639        C  0.41733276  0.57276331  0.09761442     0.00100
C640        C  0.44330036  0.58819141  0.07745341    -0.00100
C641        C  0.44837434  0.62270683  0.08086579    -0.13100
C642        C  0.42848606  0.64158329  0.10362686     0.00400
C643        C  0.40941999  0.53773526  0.09509952     0.39700
C644        C  0.43427279  0.67699918  0.10540101     0.36300
C645        C  0.42652070  0.65332233  0.19345177     0.36100
C646        C  0.29257672  0.67287684  0.14560539     0.36800
N647        N  0.40283531  0.50971248  0.09322771    -0.44000
N648        N  0.43893602  0.70538121  0.10680215    -0.44400
N649        N  0.26605802  0.67733878  0.13406517    -0.41800
N650        N  0.45361948  0.64926493  0.20348606    -0.43200
H651        H  0.38086503  0.68678884  0.22805802     0.12900
H652        H  0.33828326  0.63888406  0.11180716     0.09400
H653        H  0.37765702  0.57982850  0.13548734     0.10500
H654        H  0.46782722  0.63516950  0.06549559     0.16300
C655        C  0.38156386  0.82879020  0.35206006    -0.01900
C656        C  0.36840572  0.85781495  0.36721304     0.06700
C657        C  0.33506785  0.86551716  0.35991138    -0.07900
C658        C  0.31462884  0.84470018  0.33852456     0.04100
C659        C  0.32760729  0.81541216  0.32351450    -0.15100
C660        C  0.36122615  0.80803173  0.33011135    -0.08400
C661        C  0.38863467  0.88077605  0.39071948     0.05100
C662        C  0.41684249  0.89700831  0.37647253    -0.09600
C663        C  0.43559578  0.91979230  0.39754119     0.00100
C664        C  0.42558018  0.92732796  0.43322497    -0.00100
C665        C  0.39717012  0.91135192  0.44723091    -0.13100
C666        C  0.37905880  0.88790252  0.42661088     0.00400
C667        C  0.46460668  0.93548438  0.38170717     0.39700
C668        C  0.35161227  0.87037937  0.44346184     0.36300
C669        C  0.41546182  0.81926863  0.35962839     0.36100
C670        C  0.28083166  0.85493473  0.33127987     0.36800
N671        N  0.48788435  0.94801020  0.36903243    -0.44000
N672        N  0.32973972  0.85619540  0.45701338    -0.44400
N673        N  0.25380621  0.86325319  0.32553379    -0.41800
N674        N  0.44261699  0.81161184  0.36580112    -0.43200
H675        H  0.37144185  0.78575507  0.31863246     0.12900
H676        H  0.32500365  0.88809182  0.37089324     0.09400
H677        H  0.42412574  0.89194718  0.34882005     0.10500
H678        H  0.38985436  0.91619156  0.47496851     0.16300
C679        C  0.37897798  0.57633626  0.38991339    -0.01900
C680        C  0.37995356  0.61146347  0.39107985     0.06700
C681        C  0.40363282  0.62727473  0.41402419    -0.07900
C682        C  0.42647554  0.60902891  0.43466372     0.04100
C683        C  0.42461874  0.57401312  0.43450386    -0.15100
C684        C  0.40062959  0.55801475  0.41222426    -0.08400
C685        C  0.35672430  0.63217678  0.36871790     0.05100
C686        C  0.32219775  0.62546959  0.36953064    -0.09600
C687        C  0.29984841  0.64327934  0.34760171     0.00100
C688        C  0.31175017  0.66952912  0.32553560    -0.00100
C689        C  0.34597965  0.67731165  0.32602670    -0.13100
C690        C  0.36847328  0.65864241  0.34670408     0.00400
C691        C  0.26492600  0.63400795  0.34823873     0.39700
C692        C  0.40361120  0.66618154  0.34323060     0.36300
C693        C  0.35683496  0.55845148  0.36524272     0.36100
C694        C  0.45098914  0.62700936  0.45649423     0.36800
N695        N  0.23698890  0.62636348  0.34860103    -0.44000
N696        N  0.43176049  0.67227962  0.34054003    -0.44400
N697        N  0.47078331  0.64157930  0.47359800    -0.41800
N698        N  0.33913539  0.54413420  0.34540466    -0.43200
H699        H  0.39922904  0.53114096  0.41176776     0.12900
H700        H  0.40434075  0.65409279  0.41585701     0.09400
H701        H  0.31267508  0.60591269  0.38697092     0.10500
H702        H  0.35547722  0.69701018  0.30864479     0.16300
C703        C  0.06960150  0.85698390  0.40522682    -0.01900
C704        C  0.09511813  0.86663951  0.38122848     0.06700
C705        C  0.10508795  0.90010415  0.37957062    -0.07900
C706        C  0.09019779  0.92396017  0.40110088     0.04100
C707        C  0.06454178  0.91449924  0.42524307    -0.15100
C708        C  0.05474581  0.88083914  0.42718519    -0.08400
C709        C  0.11186643  0.84307877  0.35674449     0.05100
C710        C  0.10987884  0.84887234  0.31910311    -0.09600
C711        C  0.13030893  0.83211947  0.29503487     0.00100
C712        C  0.15348939  0.80905796  0.30864714    -0.00100
C713        C  0.15404950  0.80178716  0.34607875    -0.13100
C714        C  0.13343401  0.81846844  0.37013237     0.00400
C715        C  0.12879772  0.84127394  0.25703978     0.39700
C716        C  0.13639875  0.81128351  0.40853525     0.36300
C717        C  0.05766687  0.82304365  0.40706119     0.36100
C718        C  0.10271459  0.95771777  0.39849616     0.36800
N719        N  0.12735404  0.84880503  0.22666295    -0.44000
N720        N  0.13864101  0.80525564  0.43926953    -0.44400
N721        N  0.11278509  0.98473160  0.39637365    -0.41800
N722        N  0.04815797  0.79580870  0.40860862    -0.43200
H723        H  0.03507537  0.87320796  0.44545004     0.12900
H724        H  0.12488277  0.90761297  0.36135676     0.09400
H725        H  0.09346423  0.86779414  0.30871816     0.10500
H726        H  0.17156332  0.78391218  0.35673151     0.16300
C727        C  0.34053207  0.87774098  0.15759384    -0.01900
C728        C  0.36475977  0.86190834  0.13657542     0.06700
C729        C  0.36537124  0.82721609  0.13668568    -0.07900
C730        C  0.34230697  0.80821246  0.15625643     0.04100
C731        C  0.31868136  0.82382105  0.17854706    -0.15100
C732        C  0.31816391  0.85875042  0.17862326    -0.08400
C733        C  0.38981763  0.88054530  0.11421873     0.05100
C734        C  0.41041566  0.90506825  0.13061689    -0.09600
C735        C  0.43464657  0.92242490  0.11054958     0.00100
C736        C  0.43942973  0.91456054  0.07359079    -0.00100
C737        C  0.41952596  0.88952335  0.05746716    -0.13100
C738        C  0.39461739  0.87295238  0.07709058     0.00400
C739        C  0.45490347  0.94747956  0.12877270     0.39700
C740        C  0.37355809  0.84909373  0.05797130     0.36300
C741        C  0.33764478  0.91336033  0.15749823     0.36100
C742        C  0.34419793  0.77276968  0.15231784     0.36800
N743        N  0.47118137  0.96753755  0.14336595    -0.44000
N744        N  0.35676939  0.82988200  0.04270017    -0.44400
N745        N  0.34637092  0.74456620  0.14766854    -0.41800
N746        N  0.33537618  0.94192636  0.15739627    -0.43200
H747        H  0.30016872  0.87134198  0.19507329     0.12900
H748        H  0.38413294  0.81471757  0.12113986     0.09400
H749        H  0.40769908  0.91056919  0.15924303     0.10500
H750        H  0.42255085  0.88377276  0.02890550     0.16300
O751        O  0.46411312  0.96540940  0.55268372    -0.80000
O752        O  0.07247369  0.53690486  0.51303797    -0.80100
O753        O  0.02975148  0.96360400  0.54856017    -0.80100
O754        O  0.48357491  0.58511268  0.53013937    -0.80000
O755        O  0.07288904  0.97045944  0.51359543    -0.80100
O756        O  0.46340270  0.53772451  0.55214612    -0.80000
O757        O  0.03017799  0.54015433  0.54920135    -0.80000
O758        O  0.47983041  0.91895140  0.52643958    -0.80100
C759        C  0.46222898  0.93344907  0.54989774     1.09700
C760        C  0.06107254  0.54382074  0.54399873     1.09500
C761        C  0.06073942  0.96150679  0.54378498     1.09700
C762        C  0.46410812  0.56988091  0.55173866     1.09600
O763        O  0.43321341  0.53214400  0.97936030    -0.80000
O764        O  0.04716138  0.96973427  0.93986781    -0.80100
O765        O  0.47724600  0.94654087  0.95892223    -0.80000
O766        O  0.03528121  0.57539448  0.98014583    -0.80000
O767        O  0.04648726  0.53766041  0.93965573    -0.80100
O768        O  0.43310633  0.96682133  0.98115839    -0.80000
O769        O  0.47635688  0.56018573  0.96225094    -0.80000
O770        O  0.03540922  0.93052143  0.97916266    -0.80100
Co771      Co  0.45455677  0.00090034  0.51366555     1.51500
Co772      Co  0.05548233  0.50315140  0.97668887     1.51700
Co773      Co  0.50036205  0.95695970  0.50439296     1.51600
Co774      Co  0.50155861  0.54768745  0.00635707     1.51500
O775        O  0.50527579  0.00269384  0.48881026    -1.42000
C776        C  0.44587630  0.55401699  0.95930905     1.09600
C777        C  0.04785919  0.93946387  0.94900702     1.09700
C778        C  0.44641704  0.94861330  0.95811622     1.09600
C779        C  0.04643286  0.56786264  0.94904151     1.09600
O780        O  0.31771070  0.78061363  0.77214901    -0.80000
O781        O  0.17829452  0.72102819  0.75762663    -0.80100
O782        O  0.20922050  0.79540513  0.79834655    -0.80100
O783        O  0.26725533  0.67153589  0.78195995    -0.80000
O784        O  0.17349738  0.78736467  0.75299446    -0.80100
O785        O  0.29542809  0.71826544  0.79251395    -0.80000
O786        O  0.21889496  0.71605351  0.79835772    -0.80000
O787        O  0.27590923  0.79032314  0.80609225    -0.80100
C788        C  0.30648494  0.79361760  0.80047112     1.09700
C789        C  0.18816119  0.71387548  0.78991730     1.09500
C790        C  0.17978778  0.79593800  0.78574395     1.09700
C791        C  0.29011627  0.68705276  0.79928692     1.09600
O792        O  0.33203566  0.72710873  0.73296786    -0.80000
O793        O  0.21097337  0.78867385  0.68623255    -0.80100
O794        O  0.28445735  0.81908720  0.73200377    -0.80000
O795        O  0.21991834  0.68303109  0.73008727    -0.80000
O796        O  0.21400851  0.72040898  0.68822876    -0.80100
O797        O  0.29263425  0.77362424  0.70016851    -0.80000
O798        O  0.28575688  0.69955610  0.71801279    -0.80000
O799        O  0.21755680  0.82675966  0.72841262    -0.80100
Co800      Co  0.29102587  0.74607192  0.74425865     1.51500
Co801      Co  0.19733948  0.75431454  0.72177065     1.51700
Co802      Co  0.24677714  0.80500158  0.76598489     1.51600
Co803      Co  0.25200942  0.71099714  0.75982560     1.51500
O804        O  0.24282748  0.75824885  0.74668406    -1.42000
C805        C  0.31786152  0.70362699  0.71566695     1.09600
C806        C  0.21014397  0.81877857  0.69583003     1.09700
C807        C  0.29657146  0.80466066  0.70420723     1.09600
C808        C  0.21095667  0.69054552  0.69799877     1.09600
C809        C  0.14214630  0.57509436  0.58660060    -0.01900
C810        C  0.13124390  0.59560204  0.61466482     0.06700
C811        C  0.09716961  0.59649664  0.62226236    -0.07900
C812        C  0.07366719  0.57844888  0.60120841     0.04100
C813        C  0.08431854  0.55896005  0.57169698    -0.15100
C814        C  0.11885532  0.55684656  0.56570307    -0.08400
C815        C  0.15456272  0.61840944  0.63445368     0.05100
C816        C  0.15945284  0.65054124  0.62084193    -0.09600
C817        C  0.17930999  0.67388636  0.63976107     0.00100
C818        C  0.19411062  0.66539721  0.67380984    -0.00100
C819        C  0.19045653  0.63243475  0.68628926    -0.13100
C820        C  0.17115158  0.60896675  0.66672995     0.00400
C821        C  0.18356765  0.70627192  0.62341057     0.39700
C822        C  0.16850471  0.57537850  0.68020260     0.36300
C823        C  0.17699085  0.57362007  0.57772670     0.36100
C824        C  0.03901402  0.58193935  0.60985870     0.36800
N825        N  0.18708141  0.73211338  0.61007738    -0.44000
N826        N  0.16652213  0.54832488  0.69064787    -0.44400
N827        N  0.01149583  0.58520742  0.61775476    -0.41800
N828        N  0.20491659  0.57257700  0.57054767    -0.43200
H829        H  0.12780745  0.54181821  0.54355839     0.12900
H830        H  0.08881723  0.61231635  0.64401589     0.09400
H831        H  0.14731404  0.65750917  0.59543263     0.10500
H832        H  0.20214091  0.62503891  0.71175917     0.16300
C833        C  0.10788790  0.67624565  0.82639466    -0.01900
C834        C  0.11776879  0.66509876  0.86124855     0.06700
C835        C  0.14985099  0.67354379  0.87435798    -0.07900
C836        C  0.17259755  0.69118446  0.85268778     0.04100
C837        C  0.16367591  0.69999179  0.81646349    -0.15100
C838        C  0.13071751  0.69333515  0.80441085    -0.08400
C839        C  0.09631261  0.64208638  0.88296855     0.05100
C840        C  0.08697333  0.61130101  0.86791500    -0.09600
C841        C  0.06935925  0.58746945  0.88811416     0.00100
C842        C  0.06125255  0.59388187  0.92482997    -0.00100
C843        C  0.06942973  0.62537719  0.93933166    -0.13100
C844        C  0.08670056  0.64936127  0.91877019     0.00400
C845        C  0.05993319  0.55684076  0.87006307     0.39700
C846        C  0.09406307  0.68137542  0.93479081     0.36300
C847        C  0.07444142  0.67027450  0.81253513     0.36100
C848        C  0.20485110  0.69949046  0.86849959     0.36800
N849        N  0.05232400  0.53239909  0.85543529    -0.44000
N850        N  0.09992625  0.70712207  0.94744659    -0.44400
N851        N  0.23065145  0.70622858  0.88124734    -0.41800
N852        N  0.04760404  0.66554964  0.80150376    -0.43200
H853        H  0.12283415  0.70063641  0.77722969     0.12900
H854        H  0.15754839  0.66539092  0.90131520     0.09400
H855        H  0.09409687  0.60557473  0.84031061     0.10500
H856        H  0.06305503  0.63111254  0.96714191     0.16300
C857        C  0.16228317  0.85515310  0.61601293    -0.01900
C858        C  0.15666369  0.88767168  0.62815017     0.06700
C859        C  0.17317451  0.89913038  0.65962646    -0.07900
C860        C  0.19316728  0.87799571  0.68053443     0.04100
C861        C  0.19608623  0.84416170  0.67051922    -0.15100
C862        C  0.18164409  0.83368811  0.63722246    -0.08800
C863        C  0.13186241  0.90914420  0.60973337     0.05100
C864        C  0.09812320  0.89962709  0.61062970    -0.09600
C865        C  0.07386384  0.91753744  0.59156451     0.00100
C866        C  0.08332343  0.94579643  0.57095967    -0.00100
C867        C  0.11702731  0.95624697  0.57184692    -0.13100
C868        C  0.14119456  0.93826813  0.59101177     0.00400
C869        C  0.04022345  0.90444395  0.59188954     0.39700
C870        C  0.17561700  0.94911068  0.58943806     0.36300
C871        C  0.14825862  0.84329620  0.58191786     0.36100
C872        C  0.20954026  0.89180753  0.71248736     0.36800
N873        N  0.01379392  0.89261680  0.59317190    -0.44000
N874        N  0.20324057  0.95773542  0.58817836    -0.44400
N875        N  0.22269418  0.90298559  0.73801647    -0.41800
N876        N  0.13724728  0.83395320  0.55442887    -0.43200
H877        H  0.18431380  0.80828513  0.62829307     0.12900
H878        H  0.16954819  0.92440393  0.66852267     0.09400
H879        H  0.09087033  0.87743082  0.62548993     0.10500
H880        H  0.12476796  0.97787782  0.55628122     0.16300
C881        C  0.39413322  0.66164386  0.67996528    -0.01900
C882        C  0.38191607  0.64643963  0.64789019     0.06700
C883        C  0.34798281  0.64874428  0.63867073    -0.07900
C884        C  0.32628872  0.66660940  0.66045797     0.04100
C885        C  0.33853796  0.68229855  0.69246456    -0.15100
C886        C  0.37252492  0.67930967  0.70185926    -0.08400
C887        C  0.40389714  0.62728368  0.62399872     0.05100
C888        C  0.39972353  0.59279929  0.62267238    -0.09600
C889        C  0.41931361  0.57349876  0.60012267     0.00100
C890        C  0.44393104  0.58887132  0.57802702    -0.00100
C891        C  0.44801740  0.62362406  0.57965640    -0.13100
C892        C  0.42831345  0.64279494  0.60230707     0.00400
C893        C  0.41264158  0.53817471  0.59990494     0.39700
C894        C  0.43295646  0.67839591  0.60210915     0.36300
C895        C  0.42865398  0.65910856  0.69115788     0.36100
C896        C  0.29236297  0.67015529  0.64779293     0.36800
N897        N  0.40701417  0.50991562  0.59990414    -0.44000
N898        N  0.43672679  0.70692154  0.60193048    -0.44400
N899        N  0.26539073  0.67297702  0.63683244    -0.41800
N900        N  0.45632802  0.65709925  0.70008018    -0.43200
H901        H  0.38237494  0.69095210  0.72643491     0.12900
H902        H  0.33858322  0.63705976  0.61392605     0.09400
H903        H  0.38082312  0.58089075  0.63932376     0.10500
H904        H  0.46643780  0.63606504  0.56284509     0.16300
C905        C  0.38172598  0.82914162  0.85181046    -0.01900
C906        C  0.36857996  0.85795757  0.86745108     0.06700
C907        C  0.33507617  0.86543736  0.86079857    -0.07900
C908        C  0.31445929  0.84457382  0.83967550     0.04100
C909        C  0.32746837  0.81556201  0.82406633    -0.15100
C910        C  0.36124065  0.80842130  0.82999076    -0.08400
C911        C  0.38894191  0.88085939  0.89091556     0.05100
C912        C  0.41733792  0.89681218  0.87672301    -0.09600
C913        C  0.43625825  0.91944721  0.89780898     0.00100
C914        C  0.42611695  0.92726586  0.93337276    -0.00100
C915        C  0.39755033  0.91156302  0.94733048    -0.13100
C916        C  0.37936389  0.88813950  0.92677619     0.00400
C917        C  0.46564189  0.93458932  0.88216383     0.39700
C918        C  0.35187465  0.87075386  0.94370979     0.36300
C919        C  0.41576617  0.81975145  0.85875936     0.36100
C920        C  0.28039400  0.85444890  0.83345432     0.36800
N921        N  0.48924946  0.94662135  0.86965689    -0.44000
N922        N  0.32997035  0.85667141  0.95732166    -0.44400
N923        N  0.25314038  0.86246579  0.82859316    -0.41800
N924        N  0.44303625  0.81219836  0.86443065    -0.43200
H925        H  0.37147620  0.78634452  0.81808822     0.12900
H926        H  0.32499089  0.88783795  0.87215431     0.09400
H927        H  0.42467793  0.89160949  0.84912165     0.10500
H928        H  0.39018893  0.91655661  0.97503309     0.16300
C929        C  0.37889601  0.57610571  0.89010588    -0.01900
C930        C  0.37971260  0.61122829  0.89140359     0.06700
C931        C  0.40325175  0.62706941  0.91450177    -0.07900
C932        C  0.42612848  0.60885765  0.93514954     0.04100
C933        C  0.42457154  0.57383897  0.93466006    -0.15100
C934        C  0.40068429  0.55781298  0.91228090    -0.08400
C935        C  0.35649243  0.63192676  0.86900224     0.05100
C936        C  0.32196814  0.62518188  0.86968389    -0.09600
C937        C  0.29965780  0.64303432  0.84773571     0.00100
C938        C  0.31158072  0.66942084  0.82586257    -0.00100
C939        C  0.34581300  0.67718916  0.82644265    -0.13100
C940        C  0.36827575  0.65841973  0.84705541     0.00400
C941        C  0.26476438  0.63361560  0.84810151     0.39700
C942        C  0.40343269  0.66582132  0.84351141     0.36300
C943        C  0.35674690  0.55818402  0.86547913     0.36100
C944        C  0.45028165  0.62686062  0.95742553     0.36800
N945        N  0.23685929  0.62582785  0.84823158    -0.44000
N946        N  0.43160100  0.67177081  0.84071888    -0.44400
N947        N  0.46973345  0.64148235  0.97493520    -0.41800
N948        N  0.33902971  0.54380750  0.84571175    -0.43200
H949        H  0.39944365  0.53094024  0.91167347     0.12900
H950        H  0.40379917  0.65387609  0.91646265     0.09400
H951        H  0.31242256  0.60555665  0.88701022     0.10500
H952        H  0.35533942  0.69692777  0.80914583     0.16300
C953        C  0.06930395  0.85766493  0.90487458    -0.01900
C954        C  0.09505404  0.86742732  0.88121972     0.06700
C955        C  0.10502945  0.90090547  0.87984345    -0.07900
C956        C  0.08993576  0.92465732  0.90134970     0.04100
C957        C  0.06412522  0.91505369  0.92523687    -0.15100
C958        C  0.05430304  0.88139364  0.92686595    -0.08400
C959        C  0.11195148  0.84396021  0.85674474     0.05100
C960        C  0.11024836  0.84992267  0.81912236    -0.09600
C961        C  0.13059665  0.83300412  0.79510863     0.00100
C962        C  0.15343531  0.80963181  0.80875611    -0.00100
C963        C  0.15377813  0.80228089  0.84616917    -0.13100
C964        C  0.13321293  0.81909693  0.87016469     0.00400
C965        C  0.12933336  0.84224018  0.75713254     0.39700
C966        C  0.13587163  0.81171411  0.90854659     0.36300
C967        C  0.05722608  0.82375549  0.90625994     0.36100
C968        C  0.10236618  0.95846076  0.89896127     0.36800
N969        N  0.12806808  0.84983739  0.72676908    -0.44000
N970        N  0.13786086  0.80551250  0.93925713    -0.44400
N971        N  0.11235287  0.98551479  0.89699352    -0.41800
N972        N  0.04757798  0.79655057  0.90742822    -0.43200
H973        H  0.03448117  0.87366948  0.94489554     0.12900
H974        H  0.12496018  0.90851102  0.86184757     0.09400
H975        H  0.09406687  0.86902764  0.80870960     0.10500
H976        H  0.17105449  0.78420187  0.85684781     0.16300
C977        C  0.34092160  0.87741901  0.65777693    -0.01900
C978        C  0.36498390  0.86138153  0.63674143     0.06700
C979        C  0.36513534  0.82667770  0.63660297    -0.07900
C980        C  0.34182262  0.80787792  0.65607088     0.04100
C981        C  0.31860373  0.82368477  0.67871771    -0.15100
C982        C  0.31847078  0.85862532  0.67890806    -0.08400
C983        C  0.39015773  0.87986636  0.61441220     0.05100
C984        C  0.41129203  0.90386020  0.63096611    -0.09600
C985        C  0.43552209  0.92119043  0.61084877     0.00100
C986        C  0.43953101  0.91401444  0.57360050    -0.00100
C987        C  0.41917504  0.88940173  0.55735325    -0.13100
C988        C  0.39443505  0.87271424  0.57710173     0.00400
C989        C  0.45666180  0.94538643  0.62929311     0.39700
C990        C  0.37299774  0.84921142  0.55795107     0.36300
C991        C  0.33816432  0.91304902  0.65737375     0.36100
C992        C  0.34277814  0.77245651  0.65134983     0.36800
N993        N  0.47368279  0.96470190  0.64410304    -0.44000
N994        N  0.35591649  0.83026532  0.54266071    -0.44400
N995        N  0.34404874  0.74428291  0.64599922    -0.41800
N996        N  0.33593857  0.94161700  0.65690230    -0.43200
H997        H  0.30066708  0.87137717  0.69545759     0.12900
H998        H  0.38361397  0.81402287  0.62081181     0.09400
H999        H  0.40898359  0.90895222  0.65974354     0.10500
H1000       H  0.42172543  0.88407838  0.52860950     0.16300
O1001       O  0.96438618  0.46518811  0.05270266    -0.80000
O1002       O  0.57286905  0.03654006  0.01349893    -0.80100
O1003       O  0.53015643  0.46368786  0.04914985    -0.80100
O1004       O  0.98367469  0.08525505  0.03061641    -0.80000
O1005       O  0.57315521  0.47063710  0.01404553    -0.80100
O1006       O  0.96353563  0.03777849  0.05247097    -0.80000
O1007       O  0.53067832  0.03954341  0.04976328    -0.80000
O1008       O  0.97992298  0.41869315  0.02646618    -0.80100
C1009       C  0.96227726  0.43324302  0.04984592     1.09700
C1010       C  0.56157440  0.04307615  0.04459450     1.09500
C1011       C  0.56115279  0.46177297  0.04433042     1.09700
C1012       C  0.96423635  0.06993508  0.05219444     1.09600
O1013       O  0.93356632  0.03264372  0.47844627    -0.80000
O1014       O  0.54757743  0.46979440  0.43955724    -0.80100
O1015       O  0.97716909  0.44623191  0.45877624    -0.80000
O1016       O  0.53550747  0.07568063  0.48091112    -0.80000
O1017       O  0.54670386  0.03808915  0.44030387    -0.80100
O1018       O  0.93300824  0.46622061  0.48128715    -0.80000
O1019       O  0.97693907  0.06052943  0.46176115    -0.80000
O1020       O  0.53605700  0.43057297  0.47897161    -0.80100
Co1021     Co  0.95463299  0.50068916  0.01379854     1.51500
Co1022     Co  0.55553562  0.00344696  0.47717958     1.51700
Co1023     Co  0.00043149  0.45669481  0.00431902     1.51600
Co1024     Co  0.00181442  0.04788863  0.50597173     1.51500
O1025       O  0.00528652  0.50241902  0.98867213    -1.42000
C1026       C  0.94648578  0.05443469  0.45848277     1.09600
C1027       C  0.54830119  0.43951397  0.44869951     1.09700
C1028       C  0.94631746  0.44817332  0.45811322     1.09600
C1029       C  0.54675869  0.06824922  0.44981582     1.09600
O1030       O  0.81746329  0.28074408  0.27166794    -0.80000
O1031       O  0.67819706  0.22055335  0.25788762    -0.80100
O1032       O  0.70891775  0.29521325  0.29771917    -0.80100
O1033       O  0.76720532  0.17168152  0.28296604    -0.80000
O1034       O  0.67320600  0.28678790  0.25243795    -0.80100
O1035       O  0.79535560  0.21861147  0.29266176    -0.80000
O1036       O  0.71875504  0.21625845  0.29875820    -0.80000
O1037       O  0.77561740  0.29050305  0.30552176    -0.80100
C1038       C  0.80618839  0.29385999  0.29990769     1.09700
C1039       C  0.68802526  0.21395455  0.29033220     1.09500
C1040       C  0.67947944  0.29557210  0.28512642     1.09700
C1041       C  0.79014810  0.18747301  0.29985964     1.09600
O1042       O  0.83195908  0.22687319  0.23311708    -0.80000
O1043       O  0.71067783  0.28749668  0.18565053    -0.80100
O1044       O  0.78404678  0.31871590  0.23114442    -0.80000
O1045       O  0.71992889  0.18241626  0.23091119    -0.80000
O1046       O  0.71395338  0.21929211  0.18853122    -0.80100
O1047       O  0.79257151  0.27307982  0.19969485    -0.80000
O1048       O  0.78570304  0.19898656  0.21868255    -0.80000
O1049       O  0.71714113  0.32599152  0.22744828    -0.80100
Co1050     Co  0.79091286  0.24588661  0.24408883     1.51500
Co1051     Co  0.69714919  0.25349562  0.22161008     1.51700
Co1052     Co  0.74642411  0.30472729  0.26526493     1.51600
Co1053     Co  0.75189597  0.21082509  0.26029749     1.51500
O1054       O  0.74265750  0.25785826  0.24640661    -1.42000
C1055       C  0.81779599  0.20312151  0.21624415     1.09600
C1056       C  0.70994673  0.31769228  0.19490610     1.09700
C1057       C  0.79632793  0.30416809  0.20351106     1.09600
C1058       C  0.71102547  0.18952818  0.19869293     1.09600
C1059       C  0.64262315  0.07447081  0.08696485    -0.01900
C1060       C  0.63174992  0.09380814  0.11602088     0.06700
C1061       C  0.59780385  0.09360296  0.12443565    -0.07900
C1062       C  0.57433719  0.07575876  0.10311684     0.04100
C1063       C  0.58491818  0.05767631  0.07251013    -0.15100
C1064       C  0.61938895  0.05646643  0.06579277    -0.08400
C1065       C  0.65487553  0.11675810  0.13583731     0.05100
C1066       C  0.66041862  0.14852876  0.12151111    -0.09600
C1067       C  0.68017994  0.17204158  0.14027173     0.00100
C1068       C  0.69432864  0.16406830  0.17479557    -0.00100
C1069       C  0.69005465  0.13141066  0.18802255    -0.13100
C1070       C  0.67074550  0.10778930  0.16869330     0.00400
C1071       C  0.68499637  0.20407380  0.12326603     0.39700
C1072       C  0.66745647  0.07450171  0.18290280     0.36300
C1073       C  0.67737019  0.07388437  0.07747556     0.36100
C1074       C  0.53975369  0.07788743  0.11272201     0.36800
N1075       N  0.68893867  0.22963696  0.10943052    -0.44000
N1076       N  0.66494575  0.04767767  0.19393220    -0.44400
N1077       N  0.51224982  0.07989667  0.12124978    -0.41800
N1078       N  0.70521451  0.07351574  0.06982375    -0.43200
H1079       H  0.62831350  0.04239958  0.04288222     0.12900
H1080       H  0.58948821  0.10846678  0.14699593     0.09400
H1081       H  0.64882077  0.15510519  0.09568010     0.10500
H1082       H  0.70121541  0.12439896  0.21390600     0.16300
C1083       C  0.60778967  0.17679512  0.32736924    -0.01900
C1084       C  0.61768903  0.16615600  0.36239712     0.06700
C1085       C  0.64962249  0.17511564  0.37553587    -0.07900
C1086       C  0.67230647  0.19258834  0.35361361     0.04100
C1087       C  0.66349507  0.20057312  0.31712442    -0.15100
C1088       C  0.63058854  0.19359975  0.30510942    -0.08400
C1089       C  0.59653410  0.14286511  0.38407759     0.05100
C1090       C  0.58841015  0.11167703  0.36930996    -0.09600
C1091       C  0.57099885  0.08763172  0.38938873     0.00100
C1092       C  0.56171777  0.09430514  0.42571102    -0.00100
C1093       C  0.56876285  0.12616826  0.43991719    -0.13100
C1094       C  0.58594728  0.15031817  0.41946942     0.00400
C1095       C  0.56315210  0.05647398  0.37161247     0.39700
C1096       C  0.59218651  0.18268196  0.43512931     0.36300
C1097       C  0.57433701  0.17057842  0.31365315     0.36100
C1098       C  0.70435131  0.20165563  0.36944971     0.36800
N1099       N  0.55686183  0.03160252  0.35718206    -0.44000
N1100       N  0.59715182  0.20871348  0.44748142    -0.44400
N1101       N  0.72997266  0.20903987  0.38222056    -0.41800
N1102       N  0.54746395  0.16571710  0.30279809    -0.43200
H1103       H  0.62273250  0.20040569  0.27776140     0.12900
H1104       H  0.65726869  0.16746297  0.40269560     0.09400
H1105       H  0.59634021  0.10582823  0.34200582     0.10500
H1106       H  0.56152137  0.13210134  0.46740441     0.16300
C1107       C  0.66005261  0.35388347  0.11665231    -0.01900
C1108       C  0.65693965  0.38711918  0.12773426     0.06700
C1109       C  0.67586757  0.39874220  0.15753883    -0.07900
C1110       C  0.69581626  0.37720085  0.17797087     0.04100
C1111       C  0.69616410  0.34290577  0.16930429    -0.15100
C1112       C  0.67931931  0.33207420  0.13749591    -0.08800
C1113       C  0.63233254  0.40925810  0.11000306     0.05100
C1114       C  0.59838030  0.40095606  0.11246475    -0.09600
C1115       C  0.57418541  0.41901812  0.09351244     0.00100
C1116       C  0.58391063  0.44628867  0.07152041    -0.00100
C1117       C  0.61788577  0.45578270  0.07110316    -0.13100
C1118       C  0.64200815  0.43757894  0.09005742     0.00400
C1119       C  0.54024701  0.40695716  0.09539300     0.39700
C1120       C  0.67665208  0.44723808  0.08688172     0.36300
C1121       C  0.64347977  0.34162918  0.08405938     0.36100
C1122       C  0.71513138  0.39110495  0.20791846     0.36800
N1123       N  0.51356517  0.39597266  0.09795369    -0.44000
N1124       N  0.70444452  0.45492855  0.08433838    -0.44400
N1125       N  0.73071129  0.40228631  0.23181758    -0.41800
N1126       N  0.63039075  0.33197520  0.05776486    -0.43200
H1127       H  0.67996636  0.30621015  0.12960966     0.12900
H1128       H  0.67423234  0.42451070  0.16554030     0.09400
H1129       H  0.59087228  0.37942613  0.12833667     0.10500
H1130       H  0.62585360  0.47670711  0.05457418     0.16300
C1131       C  0.89400043  0.16054472  0.18137828    -0.01900
C1132       C  0.88206007  0.14592732  0.14885396     0.06700
C1133       C  0.84826351  0.14867119  0.13916954    -0.07900
C1134       C  0.82646854  0.16645470  0.16090631     0.04100
C1135       C  0.83846287  0.18158145  0.19332501    -0.15100
C1136       C  0.87227196  0.17810763  0.20323224    -0.08400
C1137       C  0.90414192  0.12690321  0.12494660     0.05100
C1138       C  0.89933813  0.09253515  0.12262297    -0.09600
C1139       C  0.91883055  0.07338363  0.09983414     0.00100
C1140       C  0.94409736  0.08876922  0.07862804    -0.00100
C1141       C  0.94881729  0.12339852  0.08123477    -0.13100
C1142       C  0.92911456  0.14244531  0.10402356     0.00400
C1143       C  0.91123287  0.03825367  0.09823909     0.39700
C1144       C  0.93425674  0.17798288  0.10464300     0.36300
C1145       C  0.92835420  0.15757274  0.19303859     0.36100
C1146       C  0.79275861  0.17060660  0.14778438     0.36800
N1147       N  0.90483431  0.01016140  0.09709654    -0.44000
N1148       N  0.93840300  0.20646129  0.10509069    -0.44400
N1149       N  0.76595451  0.17394717  0.13652394    -0.41800
N1150       N  0.95589498  0.15524231  0.20234892    -0.43200
H1151       H  0.88188740  0.18936713  0.22811524     0.12900
H1152       H  0.83907433  0.13744008  0.11409450     0.09400
H1153       H  0.87994425  0.08061902  0.13858575     0.10500
H1154       H  0.96770149  0.13584808  0.06504006     0.16300
C1155       C  0.88155845  0.32978234  0.35068975    -0.01900
C1156       C  0.86824740  0.35822691  0.36691570     0.06700
C1157       C  0.83456605  0.36533678  0.36092105    -0.07900
C1158       C  0.81396008  0.34448269  0.33975610     0.04100
C1159       C  0.82715029  0.31583322  0.32351843    -0.15100
C1160       C  0.86108010  0.30906075  0.32887574    -0.08400
C1161       C  0.88863310  0.38101571  0.39045813     0.05100
C1162       C  0.91635612  0.39790604  0.37594918    -0.09600
C1163       C  0.93535618  0.42032988  0.39723207     0.00100
C1164       C  0.92596598  0.42692832  0.43334178    -0.00100
C1165       C  0.89805711  0.41029925  0.44762349    -0.13100
C1166       C  0.87980936  0.38710193  0.42682447     0.00400
C1167       C  0.96398858  0.43658626  0.38124689     0.39700
C1168       C  0.85310911  0.36867213  0.44396135     0.36300
C1169       C  0.91578160  0.32075429  0.35709871     0.36100
C1170       C  0.77969712  0.35398848  0.33418799     0.36800
N1171       N  0.98698805  0.44953741  0.36846677    -0.44000
N1172       N  0.83186281  0.35372063  0.45772594    -0.44400
N1173       N  0.75228197  0.36169144  0.32983769    -0.41800
N1174       N  0.94319798  0.31350882  0.36239311    -0.43200
H1175       H  0.87146239  0.28725182  0.31653244     0.12900
H1176       H  0.82433765  0.38742873  0.37283782     0.09400
H1177       H  0.92311275  0.39357634  0.34797928     0.10500
H1178       H  0.89128069  0.41442308  0.47568499     0.16300
C1179       C  0.87913106  0.07674968  0.38991348    -0.01900
C1180       C  0.88072049  0.11186260  0.39054026     0.06700
C1181       C  0.90514210  0.12760898  0.41258917    -0.07900
C1182       C  0.92799083  0.10925897  0.43308728     0.04100
C1183       C  0.92550442  0.07426667  0.43354149    -0.15100
C1184       C  0.90090853  0.05836637  0.41197169    -0.08400
C1185       C  0.85730532  0.13264413  0.36859471     0.05100
C1186       C  0.82273200  0.12664852  0.37074717    -0.09600
C1187       C  0.80015204  0.14451518  0.34919208     0.00100
C1188       C  0.81193870  0.17017747  0.32627746    -0.00100
C1189       C  0.84627019  0.17729342  0.32544602    -0.13100
C1190       C  0.86894911  0.15844924  0.34563941     0.00400
C1191       C  0.76513877  0.13582304  0.35094990     0.39700
C1192       C  0.90409200  0.16493464  0.34056376     0.36300
C1193       C  0.85610109  0.05892727  0.36615557     0.36100
C1194       C  0.95304285  0.12713179  0.45429814     0.36800
N1195       N  0.73713276  0.12859157  0.35219509    -0.44000
N1196       N  0.93225261  0.17012068  0.33652255    -0.44400
N1197       N  0.97324136  0.14159430  0.47094720    -0.41800
N1198       N  0.83767181  0.04465868  0.34706856    -0.43200
H1199       H  0.89902215  0.03150964  0.41199367     0.12900
H1200       H  0.90634932  0.15444479  0.41390959     0.09400
H1201       H  0.81335817  0.10754632  0.38885726     0.10500
H1202       H  0.85563109  0.19646804  0.30730436     0.16300
C1203       C  0.56916389  0.35763411  0.40431910    -0.01900
C1204       C  0.59479825  0.36730193  0.38045836     0.06700
C1205       C  0.60487022  0.40075694  0.37903089    -0.07900
C1206       C  0.59003453  0.42455373  0.40071068     0.04100
C1207       C  0.56431741  0.41505201  0.42475706    -0.15100
C1208       C  0.55435970  0.38142845  0.42640115    -0.08400
C1209       C  0.61160722  0.34375049  0.35596530     0.05100
C1210       C  0.61011785  0.34983559  0.31834466    -0.09600
C1211       C  0.63051913  0.33290825  0.29438062     0.00100
C1212       C  0.65310360  0.30931822  0.30805383    -0.00100
C1213       C  0.65324091  0.30184830  0.34543255    -0.13100
C1214       C  0.63270046  0.31873677  0.36939507     0.00400
C1215       C  0.62974172  0.34244986  0.25647757     0.39700
C1216       C  0.63528463  0.31130820  0.40777161     0.36300
C1217       C  0.55708063  0.32373525  0.40595136     0.36100
C1218       C  0.60274198  0.45826365  0.39844951     0.36800
N1219       N  0.62897945  0.35030295  0.22617566    -0.44000
N1220       N  0.63721870  0.30507449  0.43847806    -0.44400
N1221       N  0.61300827  0.48522513  0.39660515    -0.41800
N1222       N  0.54746017  0.29653179  0.40738182    -0.43200
H1223       H  0.53462368  0.37377183  0.44457577     0.12900
H1224       H  0.62474611  0.40829545  0.36093908     0.09400
H1225       H  0.59412617  0.36909164  0.30791433     0.10500
H1226       H  0.67038310  0.28364216  0.35612625     0.16300
C1227       C  0.83944138  0.37701356  0.15589091    -0.01900
C1228       C  0.86434611  0.36119189  0.13586111     0.06700
C1229       C  0.86552431  0.32654564  0.13677308    -0.07900
C1230       C  0.84249732  0.30755476  0.15642407     0.04100
C1231       C  0.81830958  0.32319259  0.17796886    -0.15100
C1232       C  0.81711035  0.35808808  0.17704898    -0.08400
C1233       C  0.88951717  0.37981729  0.11368025     0.05100
C1234       C  0.91000200  0.40434717  0.13022029    -0.09600
C1235       C  0.93445613  0.42160856  0.11035264     0.00100
C1236       C  0.93929802  0.41389979  0.07336193    -0.00100
C1237       C  0.91951770  0.38880651  0.05713790    -0.13100
C1238       C  0.89460252  0.37212375  0.07665028     0.00400
C1239       C  0.95499948  0.44626933  0.12884266     0.39700
C1240       C  0.87384083  0.34800212  0.05755501     0.36300
C1241       C  0.83576459  0.41252297  0.15446856     0.36100
C1242       C  0.84500245  0.27210525  0.15328197     0.36800
N1243       N  0.97155812  0.46596410  0.14366297    -0.44000
N1244       N  0.85728409  0.32857667  0.04231500    -0.44400
N1245       N  0.84775569  0.24390090  0.14913581    -0.41800
N1246       N  0.83280513  0.44099371  0.15319886    -0.43200
H1247       H  0.79859735  0.37068882  0.19278845     0.12900
H1248       H  0.88468995  0.31408964  0.12178152     0.09400
H1249       H  0.90705759  0.40986084  0.15881772     0.10500
H1250       H  0.92267721  0.38305495  0.02859414     0.16300
O1251       O  0.96460792  0.46548824  0.55259289    -0.80000
O1252       O  0.57230210  0.03654244  0.51395223    -0.80100
O1253       O  0.53023824  0.46367165  0.54866322    -0.80100
O1254       O  0.98418616  0.08527991  0.52943148    -0.80000
O1255       O  0.57308530  0.47076070  0.51335123    -0.80100
O1256       O  0.96347852  0.03810818  0.55148059    -0.80000
O1257       O  0.53000712  0.03939777  0.55010594    -0.80000
O1258       O  0.98055490  0.41886153  0.52696661    -0.80100
C1259       C  0.96264438  0.43352287  0.55001282     1.09700
C1260       C  0.56091816  0.04296730  0.54504672     1.09500
C1261       C  0.56120384  0.46170958  0.54362648     1.09700
C1262       C  0.96469935  0.07027109  0.55118276     1.09600
O1263       O  0.93301972  0.03296115  0.97967162    -0.80000
O1264       O  0.54801456  0.46910633  0.94011685    -0.80100
O1265       O  0.97662827  0.44665634  0.95850428    -0.80000
O1266       O  0.53603006  0.07548802  0.98034764    -0.80000
O1267       O  0.54709761  0.03760523  0.93997041    -0.80100
O1268       O  0.93259750  0.46645156  0.98148467    -0.80000
O1269       O  0.97630822  0.06087657  0.96276787    -0.80000
O1270       O  0.53642381  0.43012366  0.97978074    -0.80100
Co1271     Co  0.95480550  0.50070121  0.51340297     1.51500
Co1272     Co  0.55598633  0.00321840  0.97705515     1.51700
Co1273     Co  0.00085386  0.45681292  0.50453351     1.51600
Co1274     Co  0.00142596  0.04807358  0.00679828     1.51500
O1275       O  0.00553599  0.50244114  0.48845729    -1.42000
C1276       C  0.94582613  0.05479731  0.95968942     1.09600
C1277       C  0.54885868  0.43890967  0.94956085     1.09700
C1278       C  0.94578654  0.44866610  0.95797604     1.09600
C1279       C  0.54731814  0.06780590  0.94933141     1.09600
O1280       O  0.81782149  0.28089837  0.77103675    -0.80000
O1281       O  0.67858722  0.22079945  0.75780456    -0.80100
O1282       O  0.70937524  0.29517589  0.79768060    -0.80100
O1283       O  0.76773381  0.17176488  0.78206684    -0.80000
O1284       O  0.67349324  0.28704144  0.75252607    -0.80100
O1285       O  0.79578132  0.21867084  0.79207845    -0.80000
O1286       O  0.71948032  0.21636644  0.79829053    -0.80000
O1287       O  0.77609011  0.29045169  0.80510606    -0.80100
C1288       C  0.80661334  0.29398772  0.79931124     1.09700
C1289       C  0.68870826  0.21399320  0.79008863     1.09500
C1290       C  0.67989026  0.29562760  0.78524761     1.09700
C1291       C  0.79050380  0.18752999  0.79924247     1.09600
O1292       O  0.83220184  0.22719162  0.73236733    -0.80000
O1293       O  0.71057902  0.28790849  0.68550547    -0.80100
O1294       O  0.78417023  0.31891945  0.73083100    -0.80000
O1295       O  0.72019412  0.18268720  0.73052972    -0.80000
O1296       O  0.71357981  0.21946923  0.68812046    -0.80100
O1297       O  0.79260175  0.27334482  0.69923788    -0.80000
O1298       O  0.78605019  0.19929396  0.71772681    -0.80000
O1299       O  0.71731805  0.32624407  0.72745460    -0.80100
Co1300     Co  0.79116754  0.24606512  0.74355737     1.51500
Co1301     Co  0.69723295  0.25377582  0.72145463     1.51700
Co1302     Co  0.74672589  0.30482449  0.76506589     1.51600
Co1303     Co  0.75238550  0.21100675  0.75959866     1.51500
O1304       O  0.74291916  0.25804497  0.74596207    -1.42000
C1305       C  0.81813855  0.20355273  0.71522997     1.09600
C1306       C  0.71000570  0.31809731  0.69489038     1.09700
C1307       C  0.79631595  0.30443152  0.70309434     1.09600
C1308       C  0.71083215  0.18971362  0.69845177     1.09600
C1309       C  0.64183760  0.07448920  0.58757910    -0.01900
C1310       C  0.63091657  0.09366544  0.61674610     0.06700
C1311       C  0.59698425  0.09321050  0.62524765    -0.07900
C1312       C  0.57356667  0.07538319  0.60382922     0.04100
C1313       C  0.58419395  0.05750898  0.57308578    -0.15100
C1314       C  0.61866727  0.05646909  0.56634866    -0.08400
C1315       C  0.65398854  0.11667167  0.63659304     0.05100
C1316       C  0.66115626  0.14770682  0.62113438    -0.09600
C1317       C  0.68102127  0.17127775  0.63971062     0.00100
C1318       C  0.69377730  0.16408792  0.67505011    -0.00100
C1319       C  0.68780421  0.13211918  0.68954318    -0.13100
C1320       C  0.66825659  0.10848002  0.67054351     0.00400
C1321       C  0.68757702  0.20249987  0.62159911     0.39700
C1322       C  0.66316365  0.07593823  0.68619226     0.36300
C1323       C  0.67659439  0.07397632  0.57811884     0.36100
C1324       C  0.53898492  0.07735086  0.61348163     0.36800
N1325       N  0.69291247  0.22741199  0.60689405    -0.44000
N1326       N  0.65920545  0.04971320  0.69843342    -0.44400
N1327       N  0.51149591  0.07926684  0.62209168    -0.41800
N1328       N  0.70444528  0.07365318  0.57048903    -0.43200
H1329       H  0.62764440  0.04253884  0.54337370     0.12900
H1330       H  0.58862685  0.10791896  0.64790510     0.09400
H1331       H  0.65073884  0.15368653  0.59453834     0.10500
H1332       H  0.69777554  0.12569339  0.71616925     0.16300
C1333       C  0.60911591  0.17566049  0.82709146    -0.01900
C1334       C  0.61925377  0.16492007  0.86198683     0.06700
C1335       C  0.65114910  0.17407579  0.87508151    -0.07900
C1336       C  0.67355932  0.19196327  0.85322829     0.04100
C1337       C  0.66447503  0.20018425  0.81688556    -0.15100
C1338       C  0.63161999  0.19291664  0.80492482    -0.08400
C1339       C  0.59819173  0.14165196  0.88372765     0.05100
C1340       C  0.58999953  0.11044867  0.86904318    -0.09600
C1341       C  0.57216329  0.08666460  0.88903770     0.00100
C1342       C  0.56266205  0.09359461  0.92522839    -0.00100
C1343       C  0.56989411  0.12543886  0.93936233    -0.13100
C1344       C  0.58737814  0.14936445  0.91894641     0.00400
C1345       C  0.56397109  0.05557739  0.87126785     0.39700
C1346       C  0.59355246  0.18182908  0.93437763     0.36300
C1347       C  0.57571771  0.16907818  0.81340670     0.36100
C1348       C  0.70559611  0.20122103  0.86896859     0.36800
N1349       N  0.55736863  0.03077673  0.85683733    -0.44000
N1350       N  0.59844333  0.20796107  0.94650114    -0.44400
N1351       N  0.73122076  0.20874139  0.88164033    -0.41800
N1352       N  0.54889372  0.16388201  0.80258070    -0.43200
H1353       H  0.62358293  0.19983195  0.77767027     0.12900
H1354       H  0.65894401  0.16633288  0.90215276     0.09400
H1355       H  0.59804989  0.10445310  0.84182364     0.10500
H1356       H  0.56248132  0.13156098  0.96674227     0.16300
C1357       C  0.66167333  0.35469517  0.61562245    -0.01900
C1358       C  0.65750377  0.38763941  0.62720841     0.06700
C1359       C  0.67527521  0.39912042  0.65788605    -0.07900
C1360       C  0.69502566  0.37763665  0.67865161     0.04100
C1361       C  0.69636979  0.34350199  0.66935909    -0.15100
C1362       C  0.68075505  0.33292501  0.63673297    -0.08800
C1363       C  0.63272767  0.40944703  0.60922816     0.05100
C1364       C  0.59891196  0.40035197  0.61085969    -0.09600
C1365       C  0.57460982  0.41814314  0.59175410     0.00100
C1366       C  0.58404714  0.44605508  0.57059545    -0.00100
C1367       C  0.61785748  0.45618320  0.57080542    -0.13100
C1368       C  0.64211251  0.43818163  0.58982530     0.00400
C1369       C  0.54096949  0.40507396  0.59239265     0.39700
C1370       C  0.67662917  0.44848786  0.58724789     0.36300
C1371       C  0.64631350  0.34268417  0.58225412     0.36100
C1372       C  0.71296444  0.39142870  0.70963732     0.36800
N1373       N  0.51456315  0.39321851  0.59385757    -0.44000
N1374       N  0.70431854  0.45669211  0.58512479    -0.44400
N1375       N  0.72742080  0.40254395  0.73437703    -0.41800
N1376       N  0.63418605  0.33324133  0.55534795    -0.43200
H1377       H  0.68222329  0.30724017  0.62833942     0.12900
H1378       H  0.67280952  0.42468473  0.66632327     0.09400
H1379       H  0.59163169  0.37840279  0.62616046     0.10500
H1380       H  0.62560665  0.47749369  0.55475315     0.16300
C1381       C  0.89495250  0.16313976  0.67868415    -0.01900
C1382       C  0.88270527  0.14740693  0.64694956     0.06700
C1383       C  0.84861235  0.14884717  0.63819378    -0.07900
C1384       C  0.82674266  0.16631399  0.66017555     0.04100
C1385       C  0.83896838  0.18240047  0.69195599    -0.15100
C1386       C  0.87316083  0.18029865  0.70084288    -0.08400
C1387       C  0.90477791  0.12822710  0.62321067     0.05100
C1388       C  0.90200580  0.09362797  0.62375376    -0.09600
C1389       C  0.92164923  0.07418418  0.60143189     0.00100
C1390       C  0.94488976  0.08951873  0.57761421    -0.00100
C1391       C  0.94772632  0.12441804  0.57753861    -0.13100
C1392       C  0.92796218  0.14373740  0.59999958     0.00400
C1393       C  0.91650479  0.03869442  0.60340132     0.39700
C1394       C  0.93124394  0.17942059  0.59807547     0.36300
C1395       C  0.92972358  0.16173803  0.68921347     0.36100
C1396       C  0.79259192  0.16896237  0.64797327     0.36800
N1397       N  0.91203680  0.01030343  0.60517696    -0.44000
N1398       N  0.93392291  0.20801351  0.59649060    -0.44400
N1399       N  0.76542103  0.17103241  0.63738517    -0.41800
N1400       N  0.95759767  0.16066617  0.69760997    -0.43200
H1401       H  0.88305164  0.19232471  0.72516563     0.12900
H1402       H  0.83919972  0.13673606  0.61371332     0.09400
H1403       H  0.88413337  0.08172537  0.64169963     0.10500
H1404       H  0.96507989  0.13683958  0.55943872     0.16300
C1405       C  0.88166701  0.33048098  0.85017026    -0.01900
C1406       C  0.86822628  0.35912335  0.86584190     0.06700
C1407       C  0.83464750  0.36628727  0.85924973    -0.07900
C1408       C  0.81423265  0.34524633  0.83809539     0.04100
C1409       C  0.82748749  0.31628799  0.82261453    -0.15100
C1410       C  0.86135355  0.30950610  0.82845830    -0.08400
C1411       C  0.88833463  0.38199164  0.88954635     0.05100
C1412       C  0.91599599  0.39911575  0.87523764    -0.09600
C1413       C  0.93480097  0.42152941  0.89673249     0.00100
C1414       C  0.92536489  0.42775738  0.93291584    -0.00100
C1415       C  0.89744409  0.41096645  0.94695964    -0.13100
C1416       C  0.87931032  0.38787683  0.92588871     0.00400
C1417       C  0.96326099  0.43820148  0.88087358     0.39700
C1418       C  0.85250719  0.36934214  0.94270755     0.36300
C1419       C  0.91584529  0.32153470  0.85704764     0.36100
C1420       C  0.78011743  0.35487025  0.83167388     0.36800
N1421       N  0.98609394  0.45152624  0.86818200    -0.44000
N1422       N  0.83116645  0.35430821  0.95619783    -0.44400
N1423       N  0.75282653  0.36266674  0.82658371    -0.41800
N1424       N  0.94322876  0.31436371  0.86270086    -0.43200
H1425       H  0.87179293  0.28750208  0.81660479     0.12900
H1426       H  0.82435126  0.38855023  0.87070958     0.09400
H1427       H  0.92285432  0.39497191  0.84726225     0.10500
H1428       H  0.89058741  0.41485622  0.97503139     0.16300
C1429       C  0.87850881  0.07697886  0.89098794    -0.01900
C1430       C  0.87989103  0.11210402  0.89172563     0.06700
C1431       C  0.90399288  0.12790363  0.91415745    -0.07900
C1432       C  0.92686550  0.10962194  0.93471166     0.04100
C1433       C  0.92467811  0.07462316  0.93490441    -0.15100
C1434       C  0.90027018  0.05865689  0.91314092    -0.08400
C1435       C  0.85672665  0.13284274  0.86935384     0.05100
C1436       C  0.82213778  0.12664600  0.87068513    -0.09600
C1437       C  0.79985391  0.14444101  0.84866626     0.00100
C1438       C  0.81192518  0.17022111  0.82605523    -0.00100
C1439       C  0.84623326  0.17753375  0.82604936    -0.13100
C1440       C  0.86864000  0.15879815  0.84674526     0.00400
C1441       C  0.76484571  0.13557333  0.84970573     0.39700
C1442       C  0.90383731  0.16562466  0.84259458     0.36300
C1443       C  0.85578247  0.05906648  0.86696995     0.36100
C1444       C  0.95170277  0.12755039  0.95615797     0.36800
N1445       N  0.73685447  0.12818510  0.85042565    -0.44000
N1446       N  0.93204146  0.17111448  0.83933287    -0.44400
N1447       N  0.97173867  0.14206042  0.97298836    -0.41800
N1448       N  0.83760582  0.04469903  0.84768814    -0.43200
H1449       H  0.89857991  0.03179036  0.91301232     0.12900
H1450       H  0.90500178  0.15473590  0.91564746     0.09400
H1451       H  0.81252136  0.10745957  0.88854232     0.10500
H1452       H  0.85583336  0.19682629  0.80819464     0.16300
C1453       C  0.56962191  0.35726540  0.90463682    -0.01900
C1454       C  0.59593474  0.36690019  0.88166679     0.06700
C1455       C  0.60676144  0.40015139  0.88131499    -0.07900
C1456       C  0.59184233  0.42384126  0.90306792     0.04100
C1457       C  0.56527285  0.41442405  0.92602277    -0.15100
C1458       C  0.55471164  0.38094871  0.92678169    -0.08400
C1459       C  0.61255690  0.34352081  0.85687414     0.05100
C1460       C  0.61081056  0.34980692  0.81931618    -0.09600
C1461       C  0.63094271  0.33288535  0.79506765     0.00100
C1462       C  0.65362602  0.30924002  0.80843235    -0.00100
C1463       C  0.65399111  0.30158503  0.84577427    -0.13100
C1464       C  0.63361024  0.31836732  0.86998813     0.00400
C1465       C  0.62970895  0.34240378  0.75716909     0.39700
C1466       C  0.63624131  0.31066449  0.90829587     0.36300
C1467       C  0.55691725  0.32354988  0.90513737     0.36100
C1468       C  0.60521227  0.45736435  0.90199184     0.36800
N1469       N  0.62853262  0.35021274  0.72686431    -0.44000
N1470       N  0.63822952  0.30423774  0.93895059    -0.44400
N1471       N  0.61594928  0.48419655  0.90111605    -0.41800
N1472       N  0.54677858  0.29649386  0.90557125    -0.43200
H1473       H  0.53436443  0.37337730  0.94417983     0.12900
H1474       H  0.62719214  0.40761664  0.86392869     0.09400
H1475       H  0.59478771  0.36914616  0.80915374     0.10500
H1476       H  0.67116083  0.28329461  0.85623304     0.16300
C1477       C  0.83964077  0.37737479  0.65598233    -0.01900
C1478       C  0.86432969  0.36153970  0.63560780     0.06700
C1479       C  0.86523353  0.32686526  0.63617493    -0.07900
C1480       C  0.84204297  0.30788129  0.65557396     0.04100
C1481       C  0.81817135  0.32351194  0.67751469    -0.15100
C1482       C  0.81728510  0.35842185  0.67706479    -0.08400
C1483       C  0.88959104  0.38015644  0.61350544     0.05100
C1484       C  0.90972227  0.40499143  0.63001448    -0.09600
C1485       C  0.93421095  0.42230011  0.61026619     0.00100
C1486       C  0.93953259  0.41427706  0.57344773    -0.00100
C1487       C  0.92016807  0.38886279  0.55727354    -0.13100
C1488       C  0.89517115  0.37216257  0.57662339     0.00400
C1489       C  0.95435065  0.44727591  0.62876676     0.39700
C1490       C  0.87495415  0.34762475  0.55747908     0.36300
C1491       C  0.83624331  0.41293380  0.65514264     0.36100
C1492       C  0.84392697  0.27244919  0.65161315     0.36800
N1493       N  0.97058987  0.46720585  0.64362098    -0.44000
N1494       N  0.85891690  0.32780478  0.54220258    -0.44400
N1495       N  0.84606365  0.24427255  0.64677309    -0.41800
N1496       N  0.83350142  0.44144477  0.65443249    -0.43200
H1497       H  0.79900571  0.37101864  0.69313004     0.12900
H1498       H  0.88429052  0.31435211  0.62108292     0.09400
H1499       H  0.90651294  0.41069552  0.65852582     0.10500
H1500       H  0.92373228  0.38284049  0.52885753     0.16300
O1501       O  0.96460558  0.96570411  0.05250565    -0.80000
O1502       O  0.57305689  0.53696768  0.01398162    -0.80100
O1503       O  0.52942881  0.96343866  0.04905587    -0.80100
O1504       O  0.98315988  0.58468473  0.02989643    -0.80000
O1505       O  0.57235455  0.97022950  0.01377846    -0.80100
O1506       O  0.96328264  0.53738275  0.05238698    -0.80000
O1507       O  0.53057274  0.53975082  0.04987776    -0.80000
O1508       O  0.98021704  0.91928618  0.02618897    -0.80100
C1509       C  0.96249594  0.93377315  0.04955271     1.09700
C1510       C  0.56149064  0.54342982  0.04497745     1.09500
C1511       C  0.56040514  0.96140971  0.04410245     1.09700
C1512       C  0.96372823  0.56953801  0.05161891     1.09600
O1513       O  0.93238333  0.53211941  0.47930638    -0.80000
O1514       O  0.54654109  0.96916982  0.43980645    -0.80100
O1515       O  0.97798666  0.94698944  0.45812376    -0.80000
O1516       O  0.53599883  0.57617217  0.48089531    -0.80000
O1517       O  0.54737767  0.53869442  0.44025843    -0.80100
O1518       O  0.93377593  0.96673271  0.48063575    -0.80000
O1519       O  0.97565394  0.55954174  0.46154676    -0.80000
O1520       O  0.53481253  0.93005068  0.47924552    -0.80100
Co1521     Co  0.95511501  0.00126861  0.01362801     1.51500
Co1522     Co  0.55641209  0.50402672  0.47704130     1.51700
Co1523     Co  0.00092409  0.95736162  0.00433413     1.51600
Co1524     Co  0.00089128  0.54753222  0.50573763     1.51500
O1525       O  0.00587308  0.00314048  0.98888505    -1.42000
C1526       C  0.94512181  0.55366632  0.45890712     1.09600
C1527       C  0.54733385  0.93893774  0.44911147     1.09700
C1528       C  0.94713974  0.94868891  0.45748711     1.09600
C1529       C  0.54737898  0.56882869  0.44984466     1.09600
O1530       O  0.81767574  0.78151049  0.27129384    -0.80000
O1531       O  0.67858162  0.72147611  0.25818179    -0.80100
O1532       O  0.70923000  0.79599060  0.29792577    -0.80100
O1533       O  0.76773313  0.67235298  0.28217271    -0.80000
O1534       O  0.67345230  0.78765495  0.25269871    -0.80100
O1535       O  0.79613436  0.71909462  0.29196695    -0.80000
O1536       O  0.71941083  0.71686018  0.29874891    -0.80000
O1537       O  0.77598345  0.79128747  0.30545423    -0.80100
C1538       C  0.80654457  0.79449655  0.29968614     1.09700
C1539       C  0.68861369  0.71472576  0.29051828     1.09500
C1540       C  0.67976204  0.79633593  0.28540900     1.09700
C1541       C  0.79076814  0.68795465  0.29909212     1.09600
O1542       O  0.83209892  0.72799083  0.23199313    -0.80000
O1543       O  0.71082085  0.78835043  0.18582284    -0.80100
O1544       O  0.78415546  0.81969474  0.23115190    -0.80000
O1545       O  0.72008425  0.68329979  0.23095081    -0.80000
O1546       O  0.71388813  0.72012553  0.18859230    -0.80100
O1547       O  0.79219544  0.77417277  0.19940511    -0.80000
O1548       O  0.78580716  0.70001957  0.21793204    -0.80000
O1549       O  0.71726589  0.82682587  0.22762970    -0.80100
Co1550     Co  0.79109392  0.74675349  0.24363020     1.51500
Co1551     Co  0.69732716  0.75436926  0.22179032     1.51700
Co1552     Co  0.74665587  0.80556616  0.26535492     1.51600
Co1553     Co  0.75230797  0.71162681  0.25997892     1.51500
O1554       O  0.74287220  0.75868194  0.24647239    -1.42000
C1555       C  0.81786038  0.70429597  0.21508854     1.09600
C1556       C  0.71003056  0.81853709  0.19509286     1.09700
C1557       C  0.79609980  0.80522522  0.20329605     1.09600
C1558       C  0.71085583  0.69039994  0.19885839     1.09600
C1559       C  0.64201517  0.57540279  0.08794868    -0.01900
C1560       C  0.63079856  0.59473328  0.11684480     0.06700
C1561       C  0.59681004  0.59420755  0.12507540    -0.07900
C1562       C  0.57362465  0.57610104  0.10365357     0.04100
C1563       C  0.58453878  0.55815077  0.07309626    -0.15100
C1564       C  0.61906139  0.55719840  0.06663862    -0.08400
C1565       C  0.65369677  0.61779074  0.13681346     0.05100
C1566       C  0.66022714  0.64914094  0.12182155    -0.09600
C1567       C  0.68017626  0.67260985  0.14043258     0.00100
C1568       C  0.69364018  0.66497962  0.17535783    -0.00100
C1569       C  0.68823463  0.63275014  0.18937179    -0.13100
C1570       C  0.66861995  0.60921617  0.17030920     0.00400
C1571       C  0.68603230  0.70419943  0.12280794     0.39700
C1572       C  0.66408619  0.57639995  0.18544433     0.36300
C1573       C  0.67686101  0.57491888  0.07885597     0.36100
C1574       C  0.53898538  0.57771146  0.11318677     0.36800
N1575       N  0.69081171  0.72941454  0.10850890    -0.44000
N1576       N  0.66054624  0.54996110  0.19726376    -0.44400
N1577       N  0.51143442  0.57925999  0.12168508    -0.41800
N1578       N  0.70479034  0.57462016  0.07155199    -0.43200
H1579       H  0.62824590  0.54316027  0.04384275     0.12900
H1580       H  0.58824179  0.60898051  0.14759369     0.09400
H1581       H  0.64930658  0.65541111  0.09555788     0.10500
H1582       H  0.69874367  0.62601818  0.21566104     0.16300
C1583       C  0.60867634  0.67710336  0.32757794    -0.01900
C1584       C  0.61855310  0.66683499  0.36275314     0.06700
C1585       C  0.65036549  0.67620739  0.37594948    -0.07900
C1586       C  0.67295718  0.69372579  0.35394812     0.04100
C1587       C  0.66417627  0.70132703  0.31736397    -0.15100
C1588       C  0.63138274  0.69394443  0.30527463    -0.08400
C1589       C  0.59752459  0.64347288  0.38449080     0.05100
C1590       C  0.58934804  0.61233098  0.36963762    -0.09600
C1591       C  0.57176435  0.58832786  0.38957258     0.00100
C1592       C  0.56246628  0.59492558  0.42589722    -0.00100
C1593       C  0.56964998  0.62671004  0.44025136    -0.13100
C1594       C  0.58693409  0.65086822  0.41990113     0.00400
C1595       C  0.56364315  0.55733705  0.37158529     0.39700
C1596       C  0.59323223  0.68318459  0.43566061     0.36300
C1597       C  0.57536287  0.67040276  0.31369447     0.36100
C1598       C  0.70486670  0.70327221  0.36978846     0.36800
N1599       N  0.55710295  0.53262514  0.35694789    -0.44000
N1600       N  0.59825946  0.70917837  0.44808385    -0.44400
N1601       N  0.73038172  0.71104837  0.38254573    -0.41800
N1602       N  0.54861778  0.66512505  0.30267238    -0.43200
H1603       H  0.62355410  0.70042507  0.27782452     0.12900
H1604       H  0.65800442  0.66883531  0.40319401     0.09400
H1605       H  0.59728319  0.60651358  0.34233365     0.10500
H1606       H  0.56240804  0.63257708  0.46775135     0.16300
C1607       C  0.66117603  0.85431538  0.11581141    -0.01900
C1608       C  0.65670753  0.88722349  0.12731788     0.06700
C1609       C  0.67440879  0.89898900  0.15789716    -0.07900
C1610       C  0.69442229  0.87780843  0.17868912     0.04100
C1611       C  0.69614658  0.84369340  0.16948156    -0.15100
C1612       C  0.68058201  0.83283792  0.13692568    -0.08800
C1613       C  0.63194267  0.90889449  0.10922861     0.05100
C1614       C  0.59803594  0.90043486  0.11181525    -0.09600
C1615       C  0.57369156  0.91853897  0.09311523     0.00100
C1616       C  0.58326262  0.94588496  0.07115021    -0.00100
C1617       C  0.61722517  0.95538875  0.07047558    -0.13100
C1618       C  0.64146738  0.93720266  0.08921676     0.00400
C1619       C  0.53972974  0.90660651  0.09536229     0.39700
C1620       C  0.67608370  0.94688637  0.08581769     0.36300
C1621       C  0.64586981  0.84205552  0.08252439     0.36100
C1622       C  0.71214154  0.89187080  0.20967300     0.36800
N1623       N  0.51300285  0.89580288  0.09820629    -0.44000
N1624       N  0.70385782  0.95456763  0.08305953    -0.44400
N1625       N  0.72638347  0.90321544  0.23443103    -0.41800
N1626       N  0.63383849  0.83235673  0.05567656    -0.43200
H1627       H  0.68233019  0.80715723  0.12861317     0.12900
H1628       H  0.67170012  0.92456121  0.16621987     0.09400
H1629       H  0.59067168  0.87888782  0.12773313     0.10500
H1630       H  0.62508839  0.97635232  0.05391606     0.16300
C1631       C  0.89394603  0.66255252  0.17853016    -0.01900
C1632       C  0.88133355  0.64673172  0.14698436     0.06700
C1633       C  0.84726566  0.64871263  0.13831487    -0.07900
C1634       C  0.82580319  0.66679935  0.16016004     0.04100
C1635       C  0.83838942  0.68291828  0.19176228    -0.15100
C1636       C  0.87254177  0.68032368  0.20056664    -0.08400
C1637       C  0.90311220  0.62740867  0.12302660     0.05100
C1638       C  0.89928216  0.59286871  0.12236342    -0.09600
C1639       C  0.91890875  0.57342286  0.09998484     0.00100
C1640       C  0.94333591  0.58868799  0.07756272    -0.00100
C1641       C  0.94695703  0.62350598  0.07840684    -0.13100
C1642       C  0.92709795  0.64282876  0.10071812     0.00400
C1643       C  0.91239167  0.53807663  0.10017926     0.39700
C1644       C  0.93107295  0.67847990  0.09947761     0.36300
C1645       C  0.92870492  0.66063251  0.18897697     0.36100
C1646       C  0.79175535  0.67018761  0.14787428     0.36800
N1647       N  0.90681358  0.50981123  0.10046404    -0.44000
N1648       N  0.93425769  0.70704940  0.09841569    -0.44400
N1649       N  0.76468840  0.67291073  0.13718163    -0.41800
N1650       N  0.95658044  0.65914574  0.19725451    -0.43200
H1651       H  0.88268600  0.69238079  0.22475265     0.12900
H1652       H  0.83758548  0.63665417  0.11391701     0.09400
H1653       H  0.88061738  0.58103139  0.13938601     0.10500
H1654       H  0.96510442  0.63588517  0.06120134     0.16300
C1655       C  0.88196127  0.82917525  0.35130067    -0.01900
C1656       C  0.86904384  0.85805011  0.36703873     0.06700
C1657       C  0.83562887  0.86586745  0.36033777    -0.07900
C1658       C  0.81488536  0.84528808  0.33903037     0.04100
C1659       C  0.82767243  0.81621300  0.32334361    -0.15100
C1660       C  0.86134437  0.80872318  0.32934118    -0.08400
C1661       C  0.88959263  0.88074030  0.39054105     0.05100
C1662       C  0.91813313  0.89643703  0.37637661    -0.09600
C1663       C  0.93716657  0.91900031  0.39742578     0.00100
C1664       C  0.92692360  0.92711741  0.43287614    -0.00100
C1665       C  0.89826800  0.91157150  0.44684785    -0.13100
C1666       C  0.88003862  0.88811873  0.42637645     0.00400
C1667       C  0.96680352  0.93369776  0.38185960     0.39700
C1668       C  0.85253486  0.87079260  0.44335621     0.36300
C1669       C  0.91590192  0.81946895  0.35825804     0.36100
C1670       C  0.78095147  0.85552365  0.33266388     0.36800
N1671       N  0.99063886  0.94532221  0.36942040    -0.44000
N1672       N  0.83063724  0.85672168  0.45699459    -0.44400
N1673       N  0.75380759  0.86382605  0.32766503    -0.41800
N1674       N  0.94309804  0.81167179  0.36392518    -0.43200
H1675       H  0.87139553  0.78658401  0.31737894     0.12900
H1676       H  0.82572869  0.88833065  0.37175929     0.09400
H1677       H  0.92550164  0.89109011  0.34881707     0.10500
H1678       H  0.89084318  0.91673471  0.47448255     0.16300
C1679       C  0.87833027  0.57624472  0.38971253    -0.01900
C1680       C  0.87970766  0.61135053  0.39078582     0.06700
C1681       C  0.90348387  0.62701363  0.41369298    -0.07900
C1682       C  0.92602544  0.60859826  0.43451680     0.04100
C1683       C  0.92394466  0.57358812  0.43427228    -0.15100
C1684       C  0.89984576  0.55774854  0.41199728    -0.08400
C1685       C  0.85676326  0.63225403  0.36840331     0.05100
C1686       C  0.82213811  0.62649852  0.36997942    -0.09600
C1687       C  0.79997335  0.64474238  0.34829945     0.00100
C1688       C  0.81224479  0.67039581  0.32564563    -0.00100
C1689       C  0.84665883  0.67716670  0.32526679    -0.13100
C1690       C  0.86892072  0.65805234  0.34575219     0.00400
C1691       C  0.76483534  0.63652176  0.34974077     0.39700
C1692       C  0.90419907  0.66427500  0.34139488     0.36300
C1693       C  0.85590619  0.55858678  0.36514893     0.36100
C1694       C  0.95038917  0.62641857  0.45669625     0.36800
N1695       N  0.73671389  0.62972989  0.35071348    -0.44000
N1696       N  0.93247846  0.66920515  0.33796669    -0.44400
N1697       N  0.96999392  0.64092842  0.47411415    -0.41800
N1698       N  0.83799412  0.54444992  0.34538062    -0.43200
H1699       H  0.89824265  0.53089177  0.41154282     0.12900
H1700       H  0.90447105  0.65384476  0.41534427     0.09400
H1701       H  0.81239798  0.60735614  0.38782758     0.10500
H1702       H  0.85639823  0.69632442  0.30733919     0.16300
C1703       C  0.56877378  0.85737776  0.40444331    -0.01900
C1704       C  0.59496052  0.86719113  0.38137434     0.06700
C1705       C  0.60550472  0.90052875  0.38093224    -0.07900
C1706       C  0.59044078  0.92412177  0.40267836     0.04100
C1707       C  0.56389463  0.91455239  0.42558983    -0.15100
C1708       C  0.55362376  0.88099751  0.42646319    -0.08400
C1709       C  0.61183404  0.84391132  0.35666642     0.05100
C1710       C  0.61034233  0.85029393  0.31911489    -0.09600
C1711       C  0.63073248  0.83353498  0.29499386     0.00100
C1712       C  0.65337943  0.80990396  0.30846586    -0.00100
C1713       C  0.65352398  0.80216564  0.34578328    -0.13100
C1714       C  0.63292882  0.81882879  0.36988089     0.00400
C1715       C  0.62980322  0.84322741  0.25714213     0.39700
C1716       C  0.63540749  0.81110722  0.40819317     0.36300
C1717       C  0.55652898  0.82350884  0.40532264     0.36100
C1718       C  0.60375851  0.95767109  0.40178801     0.36800
N1719       N  0.62886372  0.85119530  0.22688088    -0.44000
N1720       N  0.63725523  0.80468002  0.43885637    -0.44400
N1721       N  0.61448502  0.98451307  0.40112605    -0.41800
N1722       N  0.54679419  0.79632145  0.40615227    -0.43200
H1723       H  0.53337465  0.87328961  0.44392651     0.12900
H1724       H  0.62590072  0.90812421  0.36355692     0.09400
H1725       H  0.59432350  0.86960648  0.30887100     0.10500
H1726       H  0.67068722  0.78390352  0.35632458     0.16300
C1727       C  0.83981322  0.87789507  0.15596132    -0.01900
C1728       C  0.86423952  0.86186230  0.13541047     0.06700
C1729       C  0.86468285  0.82716421  0.13572368    -0.07900
C1730       C  0.84135971  0.80837589  0.15519089     0.04100
C1731       C  0.81794630  0.82420235  0.17757109    -0.15100
C1732       C  0.81745406  0.85913221  0.17725694    -0.08400
C1733       C  0.88958336  0.88034178  0.11325894     0.05100
C1734       C  0.91017742  0.90476430  0.12984860    -0.09600
C1735       C  0.93463438  0.92204231  0.11000290     0.00100
C1736       C  0.93946674  0.91439827  0.07299775    -0.00100
C1737       C  0.91960514  0.88940052  0.05670877    -0.13100
C1738       C  0.89462924  0.87274567  0.07618058     0.00400
C1739       C  0.95510933  0.94675044  0.12850423     0.39700
C1740       C  0.87377331  0.84877155  0.05697769     0.36300
C1741       C  0.83656041  0.91346395  0.15483567     0.36100
C1742       C  0.84244775  0.77294197  0.15066727     0.36800
N1743       N  0.97158197  0.96651268  0.14332708    -0.44000
N1744       N  0.85715461  0.82942744  0.04169035    -0.44400
N1745       N  0.84379074  0.74475982  0.14540569    -0.41800
N1746       N  0.83391677  0.94197718  0.15374324    -0.43200
H1747       H  0.79942375  0.87188642  0.19350945     0.12900
H1748       H  0.88339738  0.81449130  0.12029207     0.09400
H1749       H  0.90728482  0.91022655  0.15845624     0.10500
H1750       H  0.92273320  0.88372649  0.02814144     0.16300
O1751       O  0.96490291  0.96592332  0.55212702    -0.80000
O1752       O  0.57295557  0.53711631  0.51396276    -0.80100
O1753       O  0.52892304  0.96315306  0.54878579    -0.80100
O1754       O  0.98276076  0.58486102  0.52895265    -0.80000
O1755       O  0.57191609  0.97018813  0.51364302    -0.80100
O1756       O  0.96326446  0.53757273  0.55173653    -0.80000
O1757       O  0.53051550  0.53987404  0.54996708    -0.80000
O1758       O  0.98069059  0.91935576  0.52616879    -0.80100
C1759       C  0.96293086  0.93395659  0.54940801     1.09700
C1760       C  0.56143762  0.54353977  0.54500582     1.09500
C1761       C  0.55989812  0.96113905  0.54385690     1.09700
C1762       C  0.96330403  0.56969984  0.55064086     1.09600
O1763       O  0.93222993  0.53231493  0.97995948    -0.80000
O1764       O  0.54702557  0.96865398  0.93998708    -0.80100
O1765       O  0.97745741  0.94745147  0.95835778    -0.80000
O1766       O  0.53615529  0.57577875  0.98054838    -0.80000
O1767       O  0.54767753  0.53799711  0.94026003    -0.80100
O1768       O  0.93326568  0.96705395  0.98109620    -0.80000
O1769       O  0.97549711  0.55983052  0.96234285    -0.80000
O1770       O  0.53527577  0.92982528  0.97979591    -0.80100
Co1771     Co  0.95551573  0.00123146  0.51286438     1.51500
Co1772     Co  0.55663143  0.50361037  0.97733901     1.51700
Co1773     Co  0.00138650  0.95726191  0.50405855     1.51600
Co1774     Co  0.00091161  0.54741722  0.00630848     1.51500
O1775       O  0.00634674  0.00293025  0.48828551    -1.42000
C1776       C  0.94496179  0.55394157  0.95966195     1.09600
C1777       C  0.54786213  0.93850762  0.94963647     1.09700
C1778       C  0.94661616  0.94923079  0.95772655     1.09600
C1779       C  0.54769471  0.56818944  0.94962276     1.09600
O1780       O  0.81835320  0.78144263  0.77103212    -0.80000
O1781       O  0.67894281  0.72172274  0.75820267    -0.80100
O1782       O  0.70997891  0.79602883  0.79825952    -0.80100
O1783       O  0.76798330  0.67245054  0.78174139    -0.80000
O1784       O  0.67396287  0.78794500  0.75321730    -0.80100
O1785       O  0.79650131  0.71907153  0.79170443    -0.80000
O1786       O  0.71990970  0.71708240  0.79858285    -0.80000
O1787       O  0.77676484  0.79111233  0.80535263    -0.80100
C1788       C  0.80728361  0.79448311  0.79941666     1.09700
C1789       C  0.68911695  0.71474896  0.79042850     1.09500
C1790       C  0.68044136  0.79645337  0.78594061     1.09700
C1791       C  0.79101089  0.68794411  0.79878554     1.09600
O1792       O  0.83243721  0.72780457  0.73160359    -0.80000
O1793       O  0.71083012  0.78903318  0.68608689    -0.80100
O1794       O  0.78465977  0.81982290  0.73121155    -0.80000
O1795       O  0.72030384  0.68372352  0.73063904    -0.80000
O1796       O  0.71366224  0.72056255  0.68829945    -0.80100
O1797       O  0.79269802  0.77437873  0.69930033    -0.80000
O1798       O  0.78588405  0.70028258  0.71745761    -0.80000
O1799       O  0.71774748  0.82721844  0.72814733    -0.80100
Co1800     Co  0.79153605  0.74681786  0.74341851     1.51500
Co1801     Co  0.69754603  0.75478647  0.72190934     1.51700
Co1802     Co  0.74727446  0.80566952  0.76552608     1.51600
Co1803     Co  0.75264361  0.71185940  0.75968103     1.51500
O1804       O  0.74330320  0.75892464  0.74629732    -1.42000
C1805       C  0.81794482  0.70432984  0.71456508     1.09600
C1806       C  0.71008856  0.81916428  0.69564905     1.09700
C1807       C  0.79661926  0.80542439  0.70331655     1.09600
C1808       C  0.71091880  0.69079189  0.69858376     1.09600
C1809       C  0.64210408  0.57535832  0.58789898    -0.01900
C1810       C  0.63097456  0.59478310  0.61677286     0.06700
C1811       C  0.59699287  0.59431645  0.62504761    -0.07900
C1812       C  0.57373690  0.57625563  0.60365697     0.04100
C1813       C  0.58455982  0.55823138  0.57310745    -0.15100
C1814       C  0.61907673  0.55718550  0.56662871    -0.08400
C1815       C  0.65394861  0.61781588  0.63673839     0.05100
C1816       C  0.66191238  0.64851646  0.62089468    -0.09600
C1817       C  0.68172984  0.67209881  0.63954245     0.00100
C1818       C  0.69379763  0.66518204  0.67522651    -0.00100
C1819       C  0.68696400  0.63355216  0.69016685    -0.13100
C1820       C  0.66730635  0.60998407  0.67122142     0.00400
C1821       C  0.68895922  0.70304728  0.62115622     0.39700
C1822       C  0.66107838  0.57791093  0.68755575     0.36300
C1823       C  0.67695912  0.57460545  0.57889164     0.36100
C1824       C  0.53911809  0.57803660  0.61320414     0.36800
N1825       N  0.69486004  0.72773177  0.60623783    -0.44000
N1826       N  0.65616797  0.55208344  0.70041051    -0.44400
N1827       N  0.51159705  0.57976462  0.62175364    -0.41800
N1828       N  0.70489639  0.57406052  0.57165809    -0.43200
H1829       H  0.62820412  0.54308017  0.54385547     0.12900
H1830       H  0.58848021  0.60913072  0.64754753     0.09400
H1831       H  0.65211166  0.65425418  0.59396572     0.10500
H1832       H  0.69626814  0.62737457  0.71714742     0.16300
C1833       C  0.60970007  0.67581234  0.82719500    -0.01900
C1834       C  0.61971795  0.66539252  0.86226837     0.06700
C1835       C  0.65150966  0.67485762  0.87544957    -0.07900
C1836       C  0.67389645  0.69278445  0.85358860     0.04100
C1837       C  0.66490726  0.70077415  0.81716259    -0.15100
C1838       C  0.63217981  0.69313040  0.80505254    -0.08400
C1839       C  0.59868256  0.64211691  0.88409864     0.05100
C1840       C  0.59031665  0.61097109  0.86936662    -0.09600
C1841       C  0.57244713  0.58720235  0.88934613     0.00100
C1842       C  0.56308356  0.59404389  0.92560121    -0.00100
C1843       C  0.57053676  0.62580530  0.93984300    -0.13100
C1844       C  0.58806781  0.64973334  0.91943967     0.00400
C1845       C  0.56405298  0.55621612  0.87147301     0.39700
C1846       C  0.59454084  0.68208064  0.93504509     0.36300
C1847       C  0.57646568  0.66881611  0.81325040     0.36100
C1848       C  0.70582186  0.70232578  0.86940250     0.36800
N1849       N  0.55729154  0.53149920  0.85695100    -0.44000
N1850       N  0.59971057  0.70810743  0.94732220    -0.44400
N1851       N  0.73136387  0.71006260  0.88212361    -0.41800
N1852       N  0.54979422  0.66327055  0.80216039    -0.43200
H1853       H  0.62422774  0.69979766  0.77769062     0.12900
H1854       H  0.65926334  0.66731757  0.90260161     0.09400
H1855       H  0.59825666  0.60499440  0.84209770     0.10500
H1856       H  0.56327761  0.63184383  0.96729956     0.16300
C1857       C  0.66229630  0.85545956  0.61577278    -0.01900
C1858       C  0.65627987  0.88783112  0.62807973     0.06700
C1859       C  0.67242939  0.89929189  0.65975391    -0.07900
C1860       C  0.69246581  0.87824957  0.68070681     0.04100
C1861       C  0.69586556  0.84452230  0.67044410    -0.15100
C1862       C  0.68176952  0.83409055  0.63696441    -0.08800
C1863       C  0.63139657  0.90913249  0.60963718     0.05100
C1864       C  0.59766087  0.89969482  0.61097533    -0.09600
C1865       C  0.57330502  0.91740874  0.59183418     0.00100
C1866       C  0.58265693  0.94549787  0.57089412    -0.00100
C1867       C  0.61640010  0.95582951  0.57128641    -0.13100
C1868       C  0.64068118  0.93793070  0.59033462     0.00400
C1869       C  0.53972314  0.90416389  0.59226671     0.39700
C1870       C  0.67516100  0.94840132  0.58791622     0.36300
C1871       C  0.64849847  0.84364191  0.58156010     0.36100
C1872       C  0.70831190  0.89203423  0.71298284     0.36800
N1873       N  0.51336350  0.89217776  0.59356248    -0.44000
N1874       N  0.70283364  0.95668625  0.58588555    -0.44400
N1875       N  0.72102323  0.90318204  0.73878426    -0.41800
N1876       N  0.63764718  0.83433800  0.55398404    -0.43200
H1877       H  0.68478844  0.80878164  0.62787690     0.12900
H1878       H  0.66846054  0.92446841  0.66876527     0.09400
H1879       H  0.59049604  0.87764308  0.62615499     0.10500
H1880       H  0.62409008  0.97724234  0.55534754     0.16300
C1881       C  0.89301734  0.66062690  0.67842243    -0.01900
C1882       C  0.88048930  0.64643587  0.64593558     0.06700
C1883       C  0.84677300  0.65007385  0.63648498    -0.07900
C1884       C  0.82558699  0.66823806  0.65856619     0.04100
C1885       C  0.83813681  0.68288099  0.69102746    -0.15100
C1886       C  0.87191104  0.67863008  0.70058561    -0.08400
C1887       C  0.90207553  0.62724319  0.62171475     0.05100
C1888       C  0.89891203  0.59266198  0.62163275    -0.09600
C1889       C  0.91864739  0.57334387  0.59923912     0.00100
C1890       C  0.94253755  0.58879755  0.57627812    -0.00100
C1891       C  0.94539089  0.62368405  0.57647219    -0.13100
C1892       C  0.92541264  0.64286496  0.59880388     0.00400
C1893       C  0.91281163  0.53790693  0.60003789     0.39700
C1894       C  0.92868342  0.67855712  0.59714368     0.36300
C1895       C  0.92737552  0.65676044  0.68965665     0.36100
C1896       C  0.79196490  0.67336824  0.64571963     0.36800
N1897       N  0.90772474  0.50956928  0.60079938    -0.44000
N1898       N  0.93125634  0.70716302  0.59571205    -0.44400
N1899       N  0.76523362  0.67755423  0.63467422    -0.41800
N1900       N  0.95491163  0.65361293  0.69861327    -0.43200
H1901       H  0.88195303  0.68951486  0.72547934     0.12900
H1902       H  0.83718478  0.63923668  0.61137034     0.09400
H1903       H  0.88072061  0.58069856  0.63913458     0.10500
H1904       H  0.96308918  0.63620160  0.55884773     0.16300
C1905       C  0.88242700  0.82991911  0.85092992    -0.01900
C1906       C  0.86932391  0.85888252  0.86626296     0.06700
C1907       C  0.83597011  0.86663638  0.85913498    -0.07900
C1908       C  0.81543199  0.84586443  0.83781913     0.04100
C1909       C  0.82832733  0.81656925  0.82274377    -0.15100
C1910       C  0.86198019  0.80919158  0.82908474    -0.08400
C1911       C  0.88957403  0.88164763  0.88993891     0.05100
C1912       C  0.91781058  0.89794012  0.87585066    -0.09600
C1913       C  0.93657468  0.92053466  0.89714054     0.00100
C1914       C  0.92642575  0.92794405  0.93281633    -0.00100
C1915       C  0.89803478  0.91183860  0.94668824    -0.13100
C1916       C  0.88001586  0.88845370  0.92590633     0.00400
C1917       C  0.96582432  0.93603216  0.88159685     0.39700
C1918       C  0.85275600  0.87057317  0.94268417     0.36300
C1919       C  0.91637847  0.82042088  0.85821402     0.36100
C1920       C  0.78161540  0.85613203  0.83074690     0.36800
N1921       N  0.98933143  0.94833786  0.86917073    -0.44000
N1922       N  0.83106718  0.85604867  0.95616760    -0.44400
N1923       N  0.75457919  0.86448564  0.82513783    -0.41800
N1924       N  0.94358493  0.81279687  0.86414232    -0.43200
H1925       H  0.87213392  0.78692794  0.81750798     0.12900
H1926       H  0.82596415  0.88917699  0.87024557     0.09400
H1927       H  0.92514477  0.89302478  0.84818483     0.10500
H1928       H  0.89069758  0.91648398  0.97447110     0.16300
C1929       C  0.87809630  0.57637286  0.89046429    -0.01900
C1930       C  0.87951063  0.61149141  0.89134907     0.06700
C1931       C  0.90331477  0.62720055  0.91420798    -0.07900
C1932       C  0.92589725  0.60883354  0.93504914     0.04100
C1933       C  0.92376094  0.57383065  0.93499457    -0.15100
C1934       C  0.89959258  0.55794413  0.91284555    -0.08400
C1935       C  0.85664662  0.63234549  0.86874936     0.05100
C1936       C  0.82201561  0.62645210  0.86992889    -0.09600
C1937       C  0.79996270  0.64458259  0.84797414     0.00100
C1938       C  0.81232552  0.67031532  0.82547209    -0.00100
C1939       C  0.84671844  0.67722859  0.82549668    -0.13100
C1940       C  0.86888372  0.65820806  0.84622038     0.00400
C1941       C  0.76485405  0.63614808  0.84900357     0.39700
C1942       C  0.90416927  0.66464451  0.84224728     0.36300
C1943       C  0.85568910  0.55860680  0.86597376     0.36100
C1944       C  0.95041717  0.62668369  0.95699551     0.36800
N1945       N  0.73676921  0.62914439  0.84967844    -0.44000
N1946       N  0.93245179  0.66977748  0.83914124    -0.44400
N1947       N  0.97018061  0.64117049  0.97422422    -0.41800
N1948       N  0.83779387  0.54436901  0.84627365    -0.43200
H1949       H  0.89794892  0.53108148  0.91252551     0.12900
H1950       H  0.90433164  0.65403185  0.91577386     0.09400
H1951       H  0.81217912  0.60728969  0.88768447     0.10500
H1952       H  0.85654498  0.69645648  0.80771037     0.16300
C1953       C  0.56850576  0.85730779  0.90383303    -0.01900
C1954       C  0.59587357  0.86687287  0.88236234     0.06700
C1955       C  0.60768811  0.89977132  0.88361022    -0.07900
C1956       C  0.59257953  0.92327095  0.90544048     0.04100
C1957       C  0.56468552  0.91404577  0.92652923    -0.15100
C1958       C  0.55323995  0.88084934  0.92585293    -0.08400
C1959       C  0.61272375  0.84368490  0.85766493     0.05100
C1960       C  0.61036918  0.84944505  0.82006929    -0.09600
C1961       C  0.63063766  0.83267991  0.79581963     0.00100
C1962       C  0.65415282  0.80985574  0.80927926    -0.00100
C1963       C  0.65513737  0.80275002  0.84675766    -0.13100
C1964       C  0.63455763  0.81931785  0.87093520     0.00400
C1965       C  0.62854089  0.84149829  0.75775570     0.39700
C1966       C  0.63767797  0.81229858  0.90936256     0.36300
C1967       C  0.55526013  0.82379320  0.90298137     0.36100
C1968       C  0.60715923  0.95631535  0.90666265     0.36800
N1969       N  0.62662682  0.84872478  0.72731411    -0.44000
N1970       N  0.64008972  0.80653584  0.94014350    -0.44400
N1971       N  0.61887166  0.98275679  0.90774346    -0.41800
N1972       N  0.54467620  0.79690018  0.90229315    -0.43200
H1973       H  0.53198557  0.87342527  0.94202252     0.12900
H1974       H  0.62904312  0.90706943  0.86749402     0.09400
H1975       H  0.59372404  0.86824132  0.80985096     0.10500
H1976       H  0.67288540  0.78506124  0.85732101     0.16300
C1977       C  0.84131012  0.87823829  0.65734711    -0.01900
C1978       C  0.86492829  0.86218808  0.63570135     0.06700
C1979       C  0.86463107  0.82747080  0.63505210    -0.07900
C1980       C  0.84130442  0.80869903  0.65454209     0.04100
C1981       C  0.81851670  0.82449399  0.67771098    -0.15100
C1982       C  0.81882401  0.85943571  0.67842900    -0.08400
C1983       C  0.89021703  0.88065732  0.61344583     0.05100
C1984       C  0.91156560  0.90438243  0.63016680    -0.09600
C1985       C  0.93598183  0.92159966  0.61019558     0.00100
C1986       C  0.93994016  0.91463759  0.57290301    -0.00100
C1987       C  0.91937709  0.89030030  0.55645850    -0.13100
C1988       C  0.89449670  0.87367012  0.57607813     0.00400
C1989       C  0.95747570  0.94534210  0.62886332     0.39700
C1990       C  0.87306906  0.85026297  0.55676829     0.36300
C1991       C  0.83913745  0.91391755  0.65783074     0.36100
C1992       C  0.84186819  0.77330537  0.64942048     0.36800
N1993       N  0.97480611  0.96428241  0.64383548    -0.44000
N1994       N  0.85605642  0.83132640  0.54137325    -0.44400
N1995       N  0.84280209  0.74514814  0.64384072    -0.41800
N1996       N  0.83738729  0.94252654  0.65817326    -0.43200
H1997       H  0.80140246  0.87219540  0.69544884     0.12900
H1998       H  0.88283891  0.81476599  0.61894047     0.09400
H1999       H  0.90935648  0.90928397  0.65898889     0.10500
H2000       H  0.92195532  0.88508582  0.52770973     0.16300
loop_ 
_geom_bond_atom_site_label_1 
_geom_bond_atom_site_label_2 
_geom_bond_distance 
_geom_bond_site_symmetry_2 
_ccdc_geom_bond_type 
O1            C9   1.293       .  A
O1          Co21   2.057       .  S
O2           C10   1.267       .  A
O2         Co272   2.001   1_554  S
O3           C11   1.264       .  A
O3        Co1023   1.993       .  S
O4           C12   1.273       .  A
O4         Co274   1.898       .  S
O5           C11   1.268       .  A
O5         Co772   2.007   1_554  S
O6           C12   1.296       .  A
O6         Co521   2.070       .  S
O7           C10   1.263       .  A
O7        Co1274   1.993       .  S
O8            C9   1.274       .  A
O8          Co23   1.913       .  S
C9          C236   1.483       .  S
C10          C63   1.493       .  S
C11         C116   1.489       .  S
C12         C140   1.492       .  S
O13          C26   1.254       .  A
O13        Co771   1.997       .  S
O14          C27   1.267       .  A
O14        Co522   1.977       .  S
O15          C28   1.241       .  A
O15        Co273   1.960       .  S
O16          C29   1.274       .  A
O16       Co1024   2.019       .  S
O17          C29   1.267       .  A
O17         Co22   1.978       .  S
O18          C28   1.255       .  A
O18        Co271   2.008       .  S
O19          C26   1.246       .  A
O19         Co24   1.965       .  S
O20          C27   1.271       .  A
O20       Co1273   2.012       .  S
Co21        O506   2.071       .  S
Co21        O763   1.995   1_554  S
Co21        O268   2.006   1_554  S
Co21         O25   2.244   1_554  S
Co22        O252   2.001       .  S
Co22        O755   2.007   1_545  S
Co22        O514   1.976   1_545  S
Co22       O1775   2.068       .  S
Co23       O1003   1.992       .  S
Co23        O265   1.959   1_554  S
Co23       O1270   2.013   1_554  S
Co23         O25   1.939   1_554  S
Co24        O254   1.894       .  S
Co24       O1257   1.993       .  S
Co24       O1016   2.021       .  S
Co24        O775   1.942       .  S
O25       Co1772   2.069       .  S
O25        Co774   1.944   1_556  S
C26         C183   1.479       .  S
C27         C207   1.486       .  S
C28         C164   1.480       .  S
C29          C92   1.495       .  S
O30          C38   1.261       .  A
O30         Co50   2.014       .  S
O31          C39   1.279       .  A
O31         Co51   2.024       .  S
O32          C40   1.263       .  A
O32         Co52   1.969       .  S
O33          C41   1.264       .  A
O33         Co53   1.891       .  S
O34          C40   1.273       .  A
O34         Co51   2.025       .  S
O35          C41   1.296       .  A
O35         Co50   2.103       .  S
O36          C39   1.269       .  A
O36         Co53   1.972       .  S
O37          C38   1.253       .  A
O37         Co52   1.964       .  S
C38         C159   1.481       .  S
C39          C87   1.495       .  S
C40         C212   1.481       .  S
C41         C188   1.480       .  S
O42          C55   1.264       .  A
O42         Co50   1.882       .  S
O43          C56   1.267       .  A
O43         Co51   1.976       .  S
O44          C57   1.284       .  A
O44         Co52   2.047       .  S
O45          C58   1.265       .  A
O45         Co53   2.003       .  S
O46          C58   1.261       .  A
O46         Co51   1.980       .  S
O47          C57   1.268       .  A
O47         Co50   1.964       .  S
O48          C55   1.300       .  A
O48         Co53   2.124       .  S
O49          C56   1.271       .  A
O49         Co52   2.009       .  S
Co50         O54   2.009       .  S
Co51         O54   2.034       .  S
Co52         O54   2.018       .  S
Co53         O54   2.000       .  S
C55         C135   1.487       .  S
C56         C111   1.492       .  S
C57         C231   1.498       .  S
C58          C68   1.494       .  S
C59          C60   1.405       .  A
C59          C64   1.398       .  A
C59          C73   1.444       .  S
C60          C65   1.484       .  S
C60          C61   1.403       .  A
C61          C62   1.405       .  A
C61          H80   1.085       .  S
C62          C63   1.418       .  A
C62          C74   1.442       .  S
C63          C64   1.411       .  A
C64          H79   1.086       .  S
C65          C66   1.401       .  A
C65          C70   1.406       .  A
C66          C67   1.401       .  A
C66          H81   1.085       .  S
C67          C68   1.419       .  A
C67          C71   1.444       .  S
C68          C69   1.411       .  A
C69          C70   1.403       .  A
C69          H82   1.084       .  S
C70          C72   1.444       .  S
C71          N75   1.157       .  T
C72          N76   1.157       .  T
C73          N78   1.157       .  T
C74          N77   1.157       .  T
C83          C84   1.409       .  A
C83          C88   1.400       .  A
C83          C97   1.444       .  S
C84          C89   1.491       .  S
C84          C85   1.404       .  A
C85          C86   1.403       .  A
C85         H104   1.085       .  S
C86          C87   1.419       .  A
C86          C98   1.444       .  S
C87          C88   1.409       .  A
C88         H103   1.085       .  S
C89          C90   1.402       .  A
C89          C94   1.410       .  A
C90          C91   1.400       .  A
C90         H105   1.086       .  S
C91          C92   1.419       .  A
C91          C95   1.445       .  S
C92          C93   1.410       .  A
C93          C94   1.405       .  A
C93         H106   1.085       .  S
C94          C96   1.444       .  S
C95          N99   1.157       .  T
C96         N100   1.157       .  T
C97         N102   1.157       .  T
C98         N101   1.157       .  T
C107        C108   1.410       .  A
C107        C112   1.400       .  A
C107        C121   1.444       .  S
C108        C113   1.487       .  S
C108        C109   1.401       .  A
C109        C110   1.402       .  A
C109        H128   1.084       .  S
C110        C111   1.421       .  A
C110        C122   1.444       .  S
C111        C112   1.407       .  A
C112        H127   1.085       .  S
C113        C114   1.402       .  A
C113        C118   1.407       .  A
C114        C115   1.401       .  A
C114        H129   1.085       .  S
C115        C116   1.416       .  A
C115        C119   1.440       .  S
C116        C117   1.410       .  A
C117        C118   1.402       .  A
C117        H130   1.085       .  S
C118        C120   1.443       .  S
C119        N123   1.156       .  T
C120        N124   1.157       .  T
C121        N126   1.157       .  T
C122        N125   1.157       .  T
C131        C132   1.408       .  A
C131        C136   1.399       .  A
C131        C145   1.444       .  S
C132        C137   1.485       .  S
C132        C133   1.403       .  A
C133        C134   1.403       .  A
C133        H152   1.084       .  S
C134        C135   1.414       .  A
C134        C146   1.440       .  S
C135        C136   1.408       .  A
C136        H151   1.085       .  S
C137        C138   1.398       .  A
C137        C142   1.410       .  A
C138        C139   1.400       .  A
C138        H153   1.086       .  S
C139        C140   1.421       .  A
C139        C143   1.445       .  S
C140        C141   1.408       .  A
C141        C142   1.402       .  A
C141        H154   1.086       .  S
C142        C144   1.444       .  S
C143        N147   1.157       .  T
C144        N148   1.157       .  T
C145        N150   1.157       .  T
C146        N149   1.156       .  T
C155        C156   1.413       .  A
C155        C160   1.405       .  A
C155        C169   1.443       .  S
C156        C161   1.488       .  S
C156        C157   1.401       .  A
C157        C158   1.397       .  A
C157        H176   1.085       .  S
C158        C159   1.416       .  A
C158        C170   1.446       .  S
C159        C160   1.404       .  A
C160        H175   1.084       .  S
C161        C162   1.404       .  A
C161        C166   1.412       .  A
C162        C163   1.403       .  A
C162        H177   1.083       .  S
C163        C164   1.414       .  A
C163        C167   1.444       .  S
C164        C165   1.404       .  A
C165        C166   1.399       .  A
C165        H178   1.085       .  S
C166        C168   1.444       .  S
C167        N171   1.157       .  T
C168        N172   1.157       .  T
C169        N174   1.157       .  T
C170        N173   1.158       .  T
C179        C180   1.416       .  A
C179        C184   1.404       .  A
C179        C193   1.444       .  S
C180        C185   1.496       .  S
C180        C181   1.405       .  A
C181        C182   1.399       .  A
C181        H200   1.083       .  S
C182        C183   1.413       .  A
C182        C194   1.445       .  S
C183        C184   1.403       .  A
C184        H199   1.084       .  S
C185        C186   1.407       .  A
C185        C190   1.415       .  A
C186        C187   1.402       .  A
C186        H201   1.083       .  S
C187        C188   1.412       .  A
C187        C191   1.444       .  S
C188        C189   1.403       .  A
C189        C190   1.400       .  A
C189        H202   1.085       .  S
C190        C192   1.444       .  S
C191        N195   1.157       .  T
C192        N196   1.157       .  T
C193        N198   1.157       .  T
C194        N197   1.157       .  T
C203        C204   1.411       .  A
C203        C208   1.406       .  A
C203        C217   1.443       .  S
C204        C209   1.489       .  S
C204        C205   1.402       .  A
C205        C206   1.397       .  A
C205        H224   1.085       .  S
C206        C207   1.416       .  A
C206        C218   1.445       .  S
C207        C208   1.408       .  A
C208        H223   1.084       .  S
C209        C210   1.404       .  A
C209        C214   1.412       .  A
C210        C211   1.400       .  A
C210        H225   1.082       .  S
C211        C212   1.412       .  A
C211        C215   1.444       .  S
C212        C213   1.406       .  A
C213        C214   1.403       .  A
C213        H226   1.084       .  S
C214        C216   1.444       .  S
C215        N219   1.157       .  T
C216        N220   1.157       .  T
C217        N222   1.157       .  T
C218        N221   1.157       .  T
C227        C228   1.415       .  A
C227        C232   1.408       .  A
C227        C241   1.443       .  S
C228        C233   1.499       .  S
C228        C229   1.400       .  A
C229        C230   1.398       .  A
C229        H248   1.085       .  S
C230        C231   1.420       .  A
C230        C242   1.441       .  S
C231        C232   1.409       .  A
C232        H247   1.084       .  S
C233        C234   1.407       .  A
C233        C238   1.416       .  A
C234        C235   1.405       .  A
C234        H249   1.084       .  S
C235        C236   1.413       .  A
C235        C239   1.444       .  S
C236        C237   1.402       .  A
C237        C238   1.401       .  A
C237        H250   1.085       .  S
C238        C240   1.445       .  S
C239        N243   1.157       .  T
C240        N244   1.157       .  T
C241        N246   1.157       .  T
C242        N245   1.156       .  T
O251        C259   1.294       .  A
O251       Co271   2.059       .  S
O252        C260   1.267       .  A
O253        C261   1.264       .  A
O253      Co1273   1.993       .  S
O254        C262   1.272       .  A
O255        C261   1.268       .  A
O255       Co522   2.005       .  S
O256        C262   1.296       .  A
O256       Co771   2.073       .  S
O257        C260   1.263       .  A
O257      Co1024   1.992       .  S
O258        C259   1.274       .  A
O258       Co273   1.912       .  S
C259        C486   1.484       .  S
C260        C313   1.493       .  S
C261        C366   1.488       .  S
C262        C390   1.492       .  S
O263        C276   1.253       .  A
O263       Co521   1.997   1_556  S
O264        C277   1.266       .  A
O264       Co772   1.976       .  S
O265        C278   1.241       .  A
O266        C279   1.274       .  A
O266      Co1274   2.021   1_556  S
O267        C279   1.266       .  A
O267       Co272   1.977       .  S
O268        C278   1.255       .  A
O269        C276   1.246       .  A
O269       Co274   1.967   1_556  S
O270        C277   1.271       .  A
O270      Co1023   2.012   1_556  S
Co271       O756   2.074       .  S
Co271       O513   1.996       .  S
Co271       O275   2.245       .  S
Co272       O505   2.007   1_546  S
Co272       O764   1.975   1_545  S
Co272      O1525   2.068       .  S
Co273      O1253   1.992       .  S
Co273      O1020   2.013       .  S
Co273       O275   1.937       .  S
Co274      O1007   1.993       .  S
Co274      O1266   2.020   1_554  S
Co274       O525   1.944   1_554  S
O275      Co1522   2.069       .  S
O275       Co524   1.942       .  S
C276        C433   1.480       .  S
C277        C457   1.485       .  S
C278        C414   1.479       .  S
C279        C342   1.496       .  S
O280        C288   1.261       .  A
O280       Co300   2.011       .  S
O281        C289   1.279       .  A
O281       Co301   2.025       .  S
O282        C290   1.263       .  A
O282       Co302   1.969       .  S
O283        C291   1.265       .  A
O283       Co303   1.891       .  S
O284        C290   1.273       .  A
O284       Co301   2.024       .  S
O285        C291   1.297       .  A
O285       Co300   2.106       .  S
O286        C289   1.269       .  A
O286       Co303   1.973       .  S
O287        C288   1.253       .  A
O287       Co302   1.965       .  S
C288        C409   1.481       .  S
C289        C337   1.496       .  S
C290        C462   1.480       .  S
C291        C438   1.481       .  S
O292        C305   1.263       .  A
O292       Co300   1.879       .  S
O293        C306   1.266       .  A
O293       Co301   1.974       .  S
O294        C307   1.284       .  A
O294       Co302   2.047       .  S
O295        C308   1.265       .  A
O295       Co303   2.006       .  S
O296        C308   1.260       .  A
O296       Co301   1.977       .  S
O297        C307   1.268       .  A
O297       Co300   1.966       .  S
O298        C305   1.301       .  A
O298       Co303   2.125       .  S
O299        C306   1.271       .  A
O299       Co302   2.009       .  S
Co300       O304   2.007       .  S
Co301       O304   2.033       .  S
Co302       O304   2.020       .  S
Co303       O304   2.002       .  S
C305        C385   1.487       .  S
C306        C361   1.490       .  S
C307        C481   1.499       .  S
C308        C318   1.494       .  S
C309        C310   1.405       .  A
C309        C314   1.398       .  A
C309        C323   1.444       .  S
C310        C315   1.484       .  S
C310        C311   1.403       .  A
C311        C312   1.405       .  A
C311        H330   1.085       .  S
C312        C313   1.418       .  A
C312        C324   1.442       .  S
C313        C314   1.411       .  A
C314        H329   1.086       .  S
C315        C316   1.400       .  A
C315        C320   1.406       .  A
C316        C317   1.401       .  A
C316        H331   1.085       .  S
C317        C318   1.420       .  A
C317        C321   1.445       .  S
C318        C319   1.411       .  A
C319        C320   1.403       .  A
C319        H332   1.084       .  S
C320        C322   1.444       .  S
C321        N325   1.157       .  T
C322        N326   1.157       .  T
C323        N328   1.157       .  T
C324        N327   1.157       .  T
C333        C334   1.410       .  A
C333        C338   1.401       .  A
C333        C347   1.444       .  S
C334        C339   1.493       .  S
C334        C335   1.404       .  A
C335        C336   1.404       .  A
C335        H354   1.085       .  S
C336        C337   1.419       .  A
C336        C348   1.444       .  S
C337        C338   1.409       .  A
C338        H353   1.085       .  S
C339        C340   1.402       .  A
C339        C344   1.410       .  A
C340        C341   1.400       .  A
C340        H355   1.086       .  S
C341        C342   1.419       .  A
C341        C345   1.445       .  S
C342        C343   1.410       .  A
C343        C344   1.406       .  A
C343        H356   1.085       .  S
C344        C346   1.444       .  S
C345        N349   1.157       .  T
C346        N350   1.157       .  T
C347        N352   1.157       .  T
C348        N351   1.157       .  T
C357        C358   1.410       .  A
C357        C362   1.400       .  A
C357        C371   1.444       .  S
C358        C363   1.486       .  S
C358        C359   1.401       .  A
C359        C360   1.402       .  A
C359        H378   1.084       .  S
C360        C361   1.419       .  A
C360        C372   1.444       .  S
C361        C362   1.407       .  A
C362        H377   1.084       .  S
C363        C364   1.401       .  A
C363        C368   1.407       .  A
C364        C365   1.401       .  A
C364        H379   1.085       .  S
C365        C366   1.416       .  A
C365        C369   1.440       .  S
C366        C367   1.410       .  A
C367        C368   1.401       .  A
C367        H380   1.085       .  S
C368        C370   1.443       .  S
C369        N373   1.156       .  T
C370        N374   1.157       .  T
C371        N376   1.157       .  T
C372        N375   1.157       .  T
C381        C382   1.407       .  A
C381        C386   1.399       .  A
C381        C395   1.444       .  S
C382        C387   1.483       .  S
C382        C383   1.402       .  A
C383        C384   1.403       .  A
C383        H402   1.084       .  S
C384        C385   1.414       .  A
C384        C396   1.440       .  S
C385        C386   1.409       .  A
C386        H401   1.084       .  S
C387        C388   1.398       .  A
C387        C392   1.409       .  A
C388        C389   1.399       .  A
C388        H403   1.086       .  S
C389        C390   1.421       .  A
C389        C393   1.444       .  S
C390        C391   1.409       .  A
C391        C392   1.401       .  A
C391        H404   1.086       .  S
C392        C394   1.444       .  S
C393        N397   1.157       .  T
C394        N398   1.157       .  T
C395        N400   1.157       .  T
C396        N399   1.156       .  T
C405        C406   1.413       .  A
C405        C410   1.405       .  A
C405        C419   1.443       .  S
C406        C411   1.488       .  S
C406        C407   1.401       .  A
C407        C408   1.397       .  A
C407        H426   1.084       .  S
C408        C409   1.416       .  A
C408        C420   1.446       .  S
C409        C410   1.404       .  A
C410        H425   1.084       .  S
C411        C412   1.405       .  A
C411        C416   1.412       .  A
C412        C413   1.403       .  A
C412        H427   1.083       .  S
C413        C414   1.414       .  A
C413        C417   1.444       .  S
C414        C415   1.403       .  A
C415        C416   1.398       .  A
C415        H428   1.085       .  S
C416        C418   1.444       .  S
C417        N421   1.157       .  T
C418        N422   1.157       .  T
C419        N424   1.157       .  T
C420        N423   1.158       .  T
C429        C430   1.416       .  A
C429        C434   1.404       .  A
C429        C443   1.444       .  S
C430        C435   1.497       .  S
C430        C431   1.405       .  A
C431        C432   1.400       .  A
C431        H450   1.084       .  S
C432        C433   1.413       .  A
C432        C444   1.445       .  S
C433        C434   1.402       .  A
C434        H449   1.084       .  S
C435        C436   1.407       .  A
C435        C440   1.415       .  A
C436        C437   1.403       .  A
C436        H451   1.083       .  S
C437        C438   1.413       .  A
C437        C441   1.444       .  S
C438        C439   1.403       .  A
C439        C440   1.401       .  A
C439        H452   1.085       .  S
C440        C442   1.444       .  S
C441        N445   1.157       .  T
C442        N446   1.157       .  T
C443        N448   1.157       .  T
C444        N447   1.157       .  T
C453        C454   1.411       .  A
C453        C458   1.406       .  A
C453        C467   1.443       .  S
C454        C459   1.489       .  S
C454        C455   1.402       .  A
C455        C456   1.397       .  A
C455        H474   1.085       .  S
C456        C457   1.416       .  A
C456        C468   1.446       .  S
C457        C458   1.407       .  A
C458        H473   1.084       .  S
C459        C460   1.404       .  A
C459        C464   1.412       .  A
C460        C461   1.400       .  A
C460        H475   1.082       .  S
C461        C462   1.412       .  A
C461        C465   1.444       .  S
C462        C463   1.406       .  A
C463        C464   1.403       .  A
C463        H476   1.084       .  S
C464        C466   1.444       .  S
C465        N469   1.157       .  T
C466        N470   1.157       .  T
C467        N472   1.157       .  T
C468        N471   1.157       .  T
C477        C478   1.414       .  A
C477        C482   1.409       .  A
C477        C491   1.443       .  S
C478        C483   1.499       .  S
C478        C479   1.400       .  A
C479        C480   1.398       .  A
C479        H498   1.085       .  S
C480        C481   1.421       .  A
C480        C492   1.441       .  S
C481        C482   1.409       .  A
C482        H497   1.084       .  S
C483        C484   1.408       .  A
C483        C488   1.416       .  A
C484        C485   1.406       .  A
C484        H499   1.084       .  S
C485        C486   1.413       .  A
C485        C489   1.444       .  S
C486        C487   1.402       .  A
C487        C488   1.401       .  A
C487        H500   1.085       .  S
C488        C490   1.444       .  S
C489        N493   1.157       .  T
C490        N494   1.157       .  T
C491        N496   1.157       .  T
C492        N495   1.156       .  T
O501        C509   1.293       .  A
O501       Co521   2.058   1_565  S
O502        C510   1.267       .  A
O502       Co772   2.002   1_554  S
O503        C511   1.263       .  A
O503      Co1523   1.992       .  S
O504        C512   1.272       .  A
O504       Co774   1.897       .  S
O505        C511   1.268       .  A
O506        C512   1.296       .  A
O507        C510   1.263       .  A
O507      Co1774   1.994       .  S
O508        C509   1.274       .  A
O508       Co523   1.912       .  S
C509        C736   1.483       .  S
C510        C563   1.494       .  S
C511        C616   1.487       .  S
C512        C640   1.492       .  S
O513        C526   1.254       .  A
O514        C527   1.266       .  A
O515        C528   1.242       .  A
O515       Co773   1.961       .  S
O516        C529   1.274       .  A
O516      Co1524   2.018       .  S
O517        C529   1.267       .  A
O517       Co522   1.978       .  S
O518        C528   1.255       .  A
O518       Co771   2.007   1_565  S
O519        C526   1.247       .  A
O519       Co524   1.966       .  S
O520        C527   1.272       .  A
O520      Co1773   2.012       .  S
Co521       O768   2.006   1_544  S
Co521       O525   2.244   1_554  S
Co522       O752   2.003       .  S
Co522      O1275   2.069       .  S
Co523      O1503   1.993       .  S
Co523       O765   1.960   1_554  S
Co523      O1770   2.012   1_554  S
Co523       O525   1.940   1_564  S
Co524       O754   1.894       .  S
Co524      O1757   1.992       .  S
Co524      O1516   2.021       .  S
O525      Co1272   2.069       .  S
C526        C683   1.479       .  S
C527        C707   1.486       .  S
C528        C664   1.479       .  S
C529        C592   1.495       .  S
O530        C538   1.261       .  A
O530       Co550   2.014       .  S
O531        C539   1.279       .  A
O531       Co551   2.025       .  S
O532        C540   1.263       .  A
O532       Co552   1.968       .  S
O533        C541   1.265       .  A
O533       Co553   1.893       .  S
O534        C540   1.273       .  A
O534       Co551   2.024       .  S
O535        C541   1.296       .  A
O535       Co550   2.102       .  S
O536        C539   1.269       .  A
O536       Co553   1.972       .  S
O537        C538   1.253       .  A
O537       Co552   1.964       .  S
C538        C659   1.482       .  S
C539        C587   1.495       .  S
C540        C712   1.481       .  S
C541        C688   1.481       .  S
O542        C555   1.264       .  A
O542       Co550   1.883       .  S
O543        C556   1.267       .  A
O543       Co551   1.979       .  S
O544        C557   1.284       .  A
O544       Co552   2.047       .  S
O545        C558   1.265       .  A
O545       Co553   2.005       .  S
O546        C558   1.261       .  A
O546       Co551   1.980       .  S
O547        C557   1.268       .  A
O547       Co550   1.964       .  S
O548        C555   1.299       .  A
O548       Co553   2.121       .  S
O549        C556   1.270       .  A
O549       Co552   2.007       .  S
Co550       O554   2.010       .  S
Co551       O554   2.034       .  S
Co552       O554   2.017       .  S
Co553       O554   2.001       .  S
C555        C635   1.485       .  S
C556        C611   1.494       .  S
C557        C731   1.498       .  S
C558        C568   1.495       .  S
C559        C560   1.404       .  A
C559        C564   1.399       .  A
C559        C573   1.444       .  S
C560        C565   1.484       .  S
C560        C561   1.402       .  A
C561        C562   1.405       .  A
C561        H580   1.085       .  S
C562        C563   1.418       .  A
C562        C574   1.442       .  S
C563        C564   1.411       .  A
C564        H579   1.086       .  S
C565        C566   1.400       .  A
C565        C570   1.406       .  A
C566        C567   1.401       .  A
C566        H581   1.085       .  S
C567        C568   1.420       .  A
C567        C571   1.444       .  S
C568        C569   1.411       .  A
C569        C570   1.403       .  A
C569        H582   1.084       .  S
C570        C572   1.444       .  S
C571        N575   1.157       .  T
C572        N576   1.157       .  T
C573        N578   1.157       .  T
C574        N577   1.157       .  T
C583        C584   1.409       .  A
C583        C588   1.401       .  A
C583        C597   1.444       .  S
C584        C589   1.491       .  S
C584        C585   1.403       .  A
C585        C586   1.403       .  A
C585        H604   1.085       .  S
C586        C587   1.419       .  A
C586        C598   1.444       .  S
C587        C588   1.409       .  A
C588        H603   1.085       .  S
C589        C590   1.402       .  A
C589        C594   1.410       .  A
C590        C591   1.400       .  A
C590        H605   1.085       .  S
C591        C592   1.419       .  A
C591        C595   1.445       .  S
C592        C593   1.410       .  A
C593        C594   1.405       .  A
C593        H606   1.084       .  S
C594        C596   1.444       .  S
C595        N599   1.157       .  T
C596        N600   1.157       .  T
C597        N602   1.157       .  T
C598        N601   1.157       .  T
C607        C608   1.410       .  A
C607        C612   1.401       .  A
C607        C621   1.444       .  S
C608        C613   1.486       .  S
C608        C609   1.399       .  A
C609        C610   1.402       .  A
C609        H628   1.084       .  S
C610        C611   1.422       .  A
C610        C622   1.444       .  S
C611        C612   1.408       .  A
C612        H627   1.084       .  S
C613        C614   1.401       .  A
C613        C618   1.407       .  A
C614        C615   1.401       .  A
C614        H629   1.085       .  S
C615        C616   1.416       .  A
C615        C619   1.441       .  S
C616        C617   1.409       .  A
C617        C618   1.402       .  A
C617        H630   1.085       .  S
C618        C620   1.443       .  S
C619        N623   1.156       .  T
C620        N624   1.157       .  T
C621        N626   1.157       .  T
C622        N625   1.157       .  T
C631        C632   1.408       .  A
C631        C636   1.399       .  A
C631        C645   1.444       .  S
C632        C637   1.484       .  S
C632        C633   1.403       .  A
C633        C634   1.403       .  A
C633        H652   1.084       .  S
C634        C635   1.414       .  A
C634        C646   1.442       .  S
C635        C636   1.408       .  A
C636        H651   1.085       .  S
C637        C638   1.398       .  A
C637        C642   1.410       .  A
C638        C639   1.400       .  A
C638        H653   1.086       .  S
C639        C640   1.421       .  A
C639        C643   1.445       .  S
C640        C641   1.408       .  A
C641        C642   1.402       .  A
C641        H654   1.086       .  S
C642        C644   1.444       .  S
C643        N647   1.158       .  T
C644        N648   1.157       .  T
C645        N650   1.157       .  T
C646        N649   1.156       .  T
C655        C656   1.413       .  A
C655        C660   1.405       .  A
C655        C669   1.443       .  S
C656        C661   1.489       .  S
C656        C657   1.401       .  A
C657        C658   1.397       .  A
C657        H676   1.085       .  S
C658        C659   1.417       .  A
C658        C670   1.446       .  S
C659        C660   1.404       .  A
C660        H675   1.084       .  S
C661        C662   1.405       .  A
C661        C666   1.412       .  A
C662        C663   1.403       .  A
C662        H677   1.083       .  S
C663        C664   1.414       .  A
C663        C667   1.444       .  S
C664        C665   1.403       .  A
C665        C666   1.399       .  A
C665        H678   1.085       .  S
C666        C668   1.444       .  S
C667        N671   1.157       .  T
C668        N672   1.157       .  T
C669        N674   1.157       .  T
C670        N673   1.158       .  T
C679        C680   1.417       .  A
C679        C684   1.404       .  A
C679        C693   1.444       .  S
C680        C685   1.498       .  S
C680        C681   1.405       .  A
C681        C682   1.399       .  A
C681        H700   1.084       .  S
C682        C683   1.413       .  A
C682        C694   1.445       .  S
C683        C684   1.403       .  A
C684        H699   1.084       .  S
C685        C686   1.408       .  A
C685        C690   1.416       .  A
C686        C687   1.403       .  A
C686        H701   1.083       .  S
C687        C688   1.412       .  A
C687        C691   1.444       .  S
C688        C689   1.403       .  A
C689        C690   1.400       .  A
C689        H702   1.085       .  S
C690        C692   1.445       .  S
C691        N695   1.157       .  T
C692        N696   1.157       .  T
C693        N698   1.157       .  T
C694        N697   1.157       .  T
C703        C704   1.411       .  A
C703        C708   1.405       .  A
C703        C717   1.443       .  S
C704        C709   1.488       .  S
C704        C705   1.402       .  A
C705        C706   1.397       .  A
C705        H724   1.085       .  S
C706        C707   1.416       .  A
C706        C718   1.445       .  S
C707        C708   1.408       .  A
C708        H723   1.084       .  S
C709        C710   1.404       .  A
C709        C714   1.412       .  A
C710        C711   1.400       .  A
C710        H725   1.082       .  S
C711        C712   1.413       .  A
C711        C715   1.444       .  S
C712        C713   1.406       .  A
C713        C714   1.403       .  A
C713        H726   1.084       .  S
C714        C716   1.444       .  S
C715        N719   1.157       .  T
C716        N720   1.157       .  T
C717        N722   1.157       .  T
C718        N721   1.157       .  T
C727        C728   1.415       .  A
C727        C732   1.408       .  A
C727        C741   1.443       .  S
C728        C733   1.499       .  S
C728        C729   1.400       .  A
C729        C730   1.397       .  A
C729        H748   1.085       .  S
C730        C731   1.420       .  A
C730        C742   1.441       .  S
C731        C732   1.409       .  A
C732        H747   1.084       .  S
C733        C734   1.407       .  A
C733        C738   1.416       .  A
C734        C735   1.405       .  A
C734        H749   1.084       .  S
C735        C736   1.413       .  A
C735        C739   1.444       .  S
C736        C737   1.402       .  A
C737        C738   1.400       .  A
C737        H750   1.085       .  S
C738        C740   1.445       .  S
C739        N743   1.157       .  T
C740        N744   1.157       .  T
C741        N746   1.157       .  T
C742        N745   1.156       .  T
O751        C759   1.294       .  A
O751       Co771   2.060   1_565  S
O752        C760   1.267       .  A
O753        C761   1.263       .  A
O753      Co1773   1.992       .  S
O754        C762   1.272       .  A
O755        C761   1.268       .  A
O756        C762   1.297       .  A
O757        C760   1.263       .  A
O757      Co1524   1.993       .  S
O758        C759   1.274       .  A
O758       Co773   1.911       .  S
C759        C986   1.482       .  S
C760        C813   1.493       .  S
C761        C866   1.487       .  S
C762        C890   1.493       .  S
O763        C776   1.253       .  A
O764        C777   1.266       .  A
O765        C778   1.242       .  A
O766        C779   1.274       .  A
O766      Co1774   2.019   1_556  S
O767        C779   1.267       .  A
O767       Co772   1.978       .  S
O768        C778   1.255       .  A
O769        C776   1.247       .  A
O769       Co774   1.967   1_556  S
O770        C777   1.272       .  A
O770      Co1523   2.012   1_556  S
Co771       O775   2.244       .  S
Co772      O1025   2.069       .  S
Co773      O1753   1.992       .  S
Co773      O1520   2.012       .  S
Co773       O775   1.937   1_565  S
Co774      O1507   1.992       .  S
Co774      O1766   2.022   1_554  S
O775      Co1022   2.068       .  S
C776        C933   1.479       .  S
C777        C957   1.485       .  S
C778        C914   1.478       .  S
C779        C842   1.495       .  S
O780        C788   1.261       .  A
O780       Co800   2.013       .  S
O781        C789   1.279       .  A
O781       Co801   2.026       .  S
O782        C790   1.262       .  A
O782       Co802   1.967       .  S
O783        C791   1.265       .  A
O783       Co803   1.893       .  S
O784        C790   1.273       .  A
O784       Co801   2.025       .  S
O785        C791   1.297       .  A
O785       Co800   2.103       .  S
O786        C789   1.268       .  A
O786       Co803   1.971       .  S
O787        C788   1.252       .  A
O787       Co802   1.964       .  S
C788        C909   1.482       .  S
C789        C837   1.496       .  S
C790        C962   1.481       .  S
C791        C938   1.481       .  S
O792        C805   1.263       .  A
O792       Co800   1.881       .  S
O793        C806   1.266       .  A
O793       Co801   1.977       .  S
O794        C807   1.284       .  A
O794       Co802   2.048       .  S
O795        C808   1.265       .  A
O795       Co803   2.008       .  S
O796        C808   1.260       .  A
O796       Co801   1.977       .  S
O797        C807   1.267       .  A
O797       Co800   1.964       .  S
O798        C805   1.300       .  A
O798       Co803   2.122       .  S
O799        C806   1.270       .  A
O799       Co802   2.008       .  S
Co800       O804   2.008       .  S
Co801       O804   2.033       .  S
Co802       O804   2.019       .  S
Co803       O804   2.004       .  S
C805        C885   1.487       .  S
C806        C861   1.494       .  S
C807        C981   1.498       .  S
C808        C818   1.495       .  S
C809        C810   1.405       .  A
C809        C814   1.400       .  A
C809        C823   1.444       .  S
C810        C815   1.483       .  S
C810        C811   1.401       .  A
C811        C812   1.404       .  A
C811        H830   1.086       .  S
C812        C813   1.418       .  A
C812        C824   1.441       .  S
C813        C814   1.411       .  A
C814        H829   1.086       .  S
C815        C816   1.399       .  A
C815        C820   1.406       .  A
C816        C817   1.401       .  A
C816        H831   1.085       .  S
C817        C818   1.421       .  A
C817        C821   1.444       .  S
C818        C819   1.411       .  A
C819        C820   1.404       .  A
C819        H832   1.084       .  S
C820        C822   1.443       .  S
C821        N825   1.157       .  T
C822        N826   1.157       .  T
C823        N828   1.157       .  T
C824        N827   1.157       .  T
C833        C834   1.410       .  A
C833        C838   1.401       .  A
C833        C847   1.444       .  S
C834        C839   1.492       .  S
C834        C835   1.404       .  A
C835        C836   1.403       .  A
C835        H854   1.085       .  S
C836        C837   1.419       .  A
C836        C848   1.444       .  S
C837        C838   1.409       .  A
C838        H853   1.085       .  S
C839        C840   1.402       .  A
C839        C844   1.410       .  A
C840        C841   1.401       .  A
C840        H855   1.085       .  S
C841        C842   1.419       .  A
C841        C845   1.445       .  S
C842        C843   1.410       .  A
C843        C844   1.405       .  A
C843        H856   1.084       .  S
C844        C846   1.444       .  S
C845        N849   1.157       .  T
C846        N850   1.157       .  T
C847        N852   1.157       .  T
C848        N851   1.157       .  T
C857        C858   1.410       .  A
C857        C862   1.401       .  A
C857        C871   1.444       .  S
C858        C863   1.486       .  S
C858        C859   1.399       .  A
C859        C860   1.401       .  A
C859        H878   1.084       .  S
C860        C861   1.422       .  A
C860        C872   1.444       .  S
C861        C862   1.408       .  A
C862        H877   1.084       .  S
C863        C864   1.401       .  A
C863        C868   1.407       .  A
C864        C865   1.401       .  A
C864        H879   1.085       .  S
C865        C866   1.416       .  A
C865        C869   1.440       .  S
C866        C867   1.409       .  A
C867        C868   1.402       .  A
C867        H880   1.085       .  S
C868        C870   1.443       .  S
C869        N873   1.156       .  T
C870        N874   1.157       .  T
C871        N876   1.157       .  T
C872        N875   1.157       .  T
C881        C882   1.407       .  A
C881        C886   1.399       .  A
C881        C895   1.444       .  S
C882        C887   1.484       .  S
C882        C883   1.403       .  A
C883        C884   1.403       .  A
C883        H902   1.084       .  S
C884        C885   1.414       .  A
C884        C896   1.441       .  S
C885        C886   1.409       .  A
C886        H901   1.085       .  S
C887        C888   1.398       .  A
C887        C892   1.409       .  A
C888        C889   1.400       .  A
C888        H903   1.086       .  S
C889        C890   1.421       .  A
C889        C893   1.444       .  S
C890        C891   1.409       .  A
C891        C892   1.402       .  A
C891        H904   1.086       .  S
C892        C894   1.444       .  S
C893        N897   1.157       .  T
C894        N898   1.157       .  T
C895        N900   1.157       .  T
C896        N899   1.157       .  T
C905        C906   1.413       .  A
C905        C910   1.405       .  A
C905        C919   1.443       .  S
C906        C911   1.489       .  S
C906        C907   1.401       .  A
C907        C908   1.397       .  A
C907        H926   1.084       .  S
C908        C909   1.417       .  A
C908        C920   1.446       .  S
C909        C910   1.405       .  A
C910        H925   1.084       .  S
C911        C912   1.405       .  A
C911        C916   1.412       .  A
C912        C913   1.403       .  A
C912        H927   1.083       .  S
C913        C914   1.414       .  A
C913        C917   1.444       .  S
C914        C915   1.403       .  A
C915        C916   1.398       .  A
C915        H928   1.085       .  S
C916        C918   1.444       .  S
C917        N921   1.157       .  T
C918        N922   1.157       .  T
C919        N924   1.157       .  T
C920        N923   1.158       .  T
C929        C930   1.417       .  A
C929        C934   1.404       .  A
C929        C943   1.444       .  S
C930        C935   1.498       .  S
C930        C931   1.405       .  A
C931        C932   1.400       .  A
C931        H950   1.083       .  S
C932        C933   1.412       .  A
C932        C944   1.445       .  S
C933        C934   1.402       .  A
C934        H949   1.084       .  S
C935        C936   1.408       .  A
C935        C940   1.416       .  A
C936        C937   1.403       .  A
C936        H951   1.083       .  S
C937        C938   1.413       .  A
C937        C941   1.444       .  S
C938        C939   1.403       .  A
C939        C940   1.400       .  A
C939        H952   1.085       .  S
C940        C942   1.444       .  S
C941        N945   1.157       .  T
C942        N946   1.157       .  T
C943        N948   1.157       .  T
C944        N947   1.157       .  T
C953        C954   1.411       .  A
C953        C958   1.405       .  A
C953        C967   1.443       .  S
C954        C959   1.488       .  S
C954        C955   1.402       .  A
C955        C956   1.397       .  A
C955        H974   1.085       .  S
C956        C957   1.416       .  A
C956        C968   1.445       .  S
C957        C958   1.407       .  A
C958        H973   1.084       .  S
C959        C960   1.404       .  A
C959        C964   1.412       .  A
C960        C961   1.400       .  A
C960        H975   1.082       .  S
C961        C962   1.413       .  A
C961        C965   1.444       .  S
C962        C963   1.406       .  A
C963        C964   1.403       .  A
C963        H976   1.084       .  S
C964        C966   1.444       .  S
C965        N969   1.157       .  T
C966        N970   1.157       .  T
C967        N972   1.157       .  T
C968        N971   1.157       .  T
C977        C978   1.414       .  A
C977        C982   1.408       .  A
C977        C991   1.443       .  S
C978        C983   1.498       .  S
C978        C979   1.400       .  A
C979        C980   1.398       .  A
C979        H998   1.085       .  S
C980        C981   1.421       .  A
C980        C992   1.441       .  S
C981        C982   1.409       .  A
C982        H997   1.084       .  S
C983        C984   1.407       .  A
C983        C988   1.416       .  A
C984        C985   1.405       .  A
C984        H999   1.084       .  S
C985        C986   1.413       .  A
C985        C989   1.444       .  S
C986        C987   1.402       .  A
C987        C988   1.400       .  A
C987       H1000   1.086       .  S
C988        C990   1.445       .  S
C989        N993   1.157       .  T
C990        N994   1.157       .  T
C991        N996   1.157       .  T
C992        N995   1.156       .  T
O1001      C1009   1.294       .  A
O1001     Co1021   2.059       .  S
O1002      C1010   1.267       .  A
O1002     Co1272   2.001   1_554  S
O1003      C1011   1.263       .  A
O1004      C1012   1.272       .  A
O1004     Co1274   1.895   1_655  S
O1005      C1011   1.268       .  A
O1005     Co1772   2.006   1_554  S
O1006      C1012   1.296       .  A
O1006     Co1521   2.073       .  S
O1007      C1010   1.263       .  A
O1008      C1009   1.274       .  A
O1008     Co1023   1.912   1_655  S
C1009      C1236   1.483       .  S
C1010      C1063   1.493       .  S
C1011      C1116   1.487       .  S
C1012      C1140   1.492       .  S
O1013      C1026   1.253       .  A
O1013     Co1771   1.995       .  S
O1014      C1027   1.266       .  A
O1014     Co1522   1.976       .  S
O1015      C1028   1.242       .  A
O1015     Co1273   1.962   1_655  S
O1016      C1029   1.274       .  A
O1017      C1029   1.266       .  A
O1017     Co1022   1.977       .  S
O1018      C1028   1.254       .  A
O1018     Co1271   2.005       .  S
O1019      C1026   1.246       .  A
O1019     Co1024   1.965   1_655  S
O1020      C1027   1.272       .  A
Co1021     O1506   2.073       .  S
Co1021     O1763   1.995   1_554  S
Co1021     O1268   2.007   1_554  S
Co1021     O1025   2.246   1_654  S
Co1022     O1252   2.002       .  S
Co1022     O1755   2.006   1_545  S
Co1022     O1514   1.976   1_545  S
Co1023     O1265   1.962   1_454  S
Co1023     O1025   1.937   1_554  S
Co1024     O1254   1.894   1_455  S
Co1024     O1775   1.940       .  S
O1025     Co1774   1.941   1_556  S
C1026      C1183   1.479       .  S
C1027      C1207   1.486       .  S
C1028      C1164   1.478       .  S
C1029      C1092   1.496       .  S
O1030      C1038   1.261       .  A
O1030     Co1050   2.013       .  S
O1031      C1039   1.279       .  A
O1031     Co1051   2.026       .  S
O1032      C1040   1.262       .  A
O1032     Co1052   1.967       .  S
O1033      C1041   1.265       .  A
O1033     Co1053   1.891       .  S
O1034      C1040   1.273       .  A
O1034     Co1051   2.026       .  S
O1035      C1041   1.296       .  A
O1035     Co1050   2.101       .  S
O1036      C1039   1.268       .  A
O1036     Co1053   1.972       .  S
O1037      C1038   1.252       .  A
O1037     Co1052   1.964       .  S
C1038      C1159   1.483       .  S
C1039      C1087   1.496       .  S
C1040      C1212   1.481       .  S
C1041      C1188   1.479       .  S
O1042      C1055   1.263       .  A
O1042     Co1050   1.880       .  S
O1043      C1056   1.266       .  A
O1043     Co1051   1.976       .  S
O1044      C1057   1.284       .  A
O1044     Co1052   2.048       .  S
O1045      C1058   1.265       .  A
O1045     Co1053   2.008       .  S
O1046      C1058   1.260       .  A
O1046     Co1051   1.977       .  S
O1047      C1057   1.268       .  A
O1047     Co1050   1.965       .  S
O1048      C1055   1.300       .  A
O1048     Co1053   2.122       .  S
O1049      C1056   1.270       .  A
O1049     Co1052   2.007       .  S
Co1050     O1054   2.008       .  S
Co1051     O1054   2.033       .  S
Co1052     O1054   2.017       .  S
Co1053     O1054   2.003       .  S
C1055      C1135   1.485       .  S
C1056      C1111   1.492       .  S
C1057      C1231   1.498       .  S
C1058      C1068   1.495       .  S
C1059      C1060   1.404       .  A
C1059      C1064   1.399       .  A
C1059      C1073   1.444       .  S
C1060      C1065   1.482       .  S
C1060      C1061   1.402       .  A
C1061      C1062   1.404       .  A
C1061      H1080   1.085       .  S
C1062      C1063   1.418       .  A
C1062      C1074   1.442       .  S
C1063      C1064   1.411       .  A
C1064      H1079   1.086       .  S
C1065      C1066   1.399       .  A
C1065      C1070   1.406       .  A
C1066      C1067   1.400       .  A
C1066      H1081   1.085       .  S
C1067      C1068   1.420       .  A
C1067      C1071   1.444       .  S
C1068      C1069   1.411       .  A
C1069      C1070   1.404       .  A
C1069      H1082   1.084       .  S
C1070      C1072   1.443       .  S
C1071      N1075   1.157       .  T
C1072      N1076   1.157       .  T
C1073      N1078   1.157       .  T
C1074      N1077   1.157       .  T
C1083      C1084   1.409       .  A
C1083      C1088   1.401       .  A
C1083      C1097   1.444       .  S
C1084      C1089   1.492       .  S
C1084      C1085   1.403       .  A
C1085      C1086   1.404       .  A
C1085      H1104   1.085       .  S
C1086      C1087   1.419       .  A
C1086      C1098   1.444       .  S
C1087      C1088   1.409       .  A
C1088      H1103   1.085       .  S
C1089      C1090   1.402       .  A
C1089      C1094   1.410       .  A
C1090      C1091   1.400       .  A
C1090      H1105   1.086       .  S
C1091      C1092   1.420       .  A
C1091      C1095   1.445       .  S
C1092      C1093   1.410       .  A
C1093      C1094   1.406       .  A
C1093      H1106   1.084       .  S
C1094      C1096   1.444       .  S
C1095      N1099   1.157       .  T
C1096      N1100   1.157       .  T
C1097      N1102   1.157       .  T
C1098      N1101   1.157       .  T
C1107      C1108   1.410       .  A
C1107      C1112   1.401       .  A
C1107      C1121   1.445       .  S
C1108      C1113   1.486       .  S
C1108      C1109   1.400       .  A
C1109      C1110   1.401       .  A
C1109      H1128   1.084       .  S
C1110      C1111   1.420       .  A
C1110      C1122   1.444       .  S
C1111      C1112   1.407       .  A
C1112      H1127   1.084       .  S
C1113      C1114   1.401       .  A
C1113      C1118   1.407       .  A
C1114      C1115   1.400       .  A
C1114      H1129   1.085       .  S
C1115      C1116   1.416       .  A
C1115      C1119   1.440       .  S
C1116      C1117   1.410       .  A
C1117      C1118   1.402       .  A
C1117      H1130   1.085       .  S
C1118      C1120   1.443       .  S
C1119      N1123   1.156       .  T
C1120      N1124   1.157       .  T
C1121      N1126   1.157       .  T
C1122      N1125   1.157       .  T
C1131      C1132   1.407       .  A
C1131      C1136   1.399       .  A
C1131      C1145   1.444       .  S
C1132      C1137   1.484       .  S
C1132      C1133   1.403       .  A
C1133      C1134   1.403       .  A
C1133      H1152   1.084       .  S
C1134      C1135   1.413       .  A
C1134      C1146   1.442       .  S
C1135      C1136   1.409       .  A
C1136      H1151   1.084       .  S
C1137      C1138   1.398       .  A
C1137      C1142   1.410       .  A
C1138      C1139   1.399       .  A
C1138      H1153   1.086       .  S
C1139      C1140   1.421       .  A
C1139      C1143   1.444       .  S
C1140      C1141   1.409       .  A
C1141      C1142   1.402       .  A
C1141      H1154   1.086       .  S
C1142      C1144   1.444       .  S
C1143      N1147   1.157       .  T
C1144      N1148   1.157       .  T
C1145      N1150   1.157       .  T
C1146      N1149   1.157       .  T
C1155      C1156   1.412       .  A
C1155      C1160   1.404       .  A
C1155      C1169   1.443       .  S
C1156      C1161   1.488       .  S
C1156      C1157   1.401       .  A
C1157      C1158   1.397       .  A
C1157      H1176   1.084       .  S
C1158      C1159   1.417       .  A
C1158      C1170   1.446       .  S
C1159      C1160   1.405       .  A
C1160      H1175   1.084       .  S
C1161      C1162   1.405       .  A
C1161      C1166   1.412       .  A
C1162      C1163   1.403       .  A
C1162      H1177   1.083       .  S
C1163      C1164   1.413       .  A
C1163      C1167   1.444       .  S
C1164      C1165   1.403       .  A
C1165      C1166   1.398       .  A
C1165      H1178   1.085       .  S
C1166      C1168   1.444       .  S
C1167      N1171   1.157       .  T
C1168      N1172   1.157       .  T
C1169      N1174   1.157       .  T
C1170      N1173   1.158       .  T
C1179      C1180   1.416       .  A
C1179      C1184   1.403       .  A
C1179      C1193   1.444       .  S
C1180      C1185   1.496       .  S
C1180      C1181   1.405       .  A
C1181      C1182   1.399       .  A
C1181      H1200   1.083       .  S
C1182      C1183   1.413       .  A
C1182      C1194   1.445       .  S
C1183      C1184   1.403       .  A
C1184      H1199   1.084       .  S
C1185      C1186   1.407       .  A
C1185      C1190   1.415       .  A
C1186      C1187   1.402       .  A
C1186      H1201   1.083       .  S
C1187      C1188   1.412       .  A
C1187      C1191   1.444       .  S
C1188      C1189   1.403       .  A
C1189      C1190   1.399       .  A
C1189      H1202   1.085       .  S
C1190      C1192   1.445       .  S
C1191      N1195   1.157       .  T
C1192      N1196   1.157       .  T
C1193      N1198   1.157       .  T
C1194      N1197   1.157       .  T
C1203      C1204   1.411       .  A
C1203      C1208   1.405       .  A
C1203      C1217   1.443       .  S
C1204      C1209   1.489       .  S
C1204      C1205   1.402       .  A
C1205      C1206   1.397       .  A
C1205      H1224   1.085       .  S
C1206      C1207   1.416       .  A
C1206      C1218   1.445       .  S
C1207      C1208   1.408       .  A
C1208      H1223   1.084       .  S
C1209      C1210   1.404       .  A
C1209      C1214   1.412       .  A
C1210      C1211   1.400       .  A
C1210      H1225   1.082       .  S
C1211      C1212   1.412       .  A
C1211      C1215   1.444       .  S
C1212      C1213   1.406       .  A
C1213      C1214   1.403       .  A
C1213      H1226   1.084       .  S
C1214      C1216   1.444       .  S
C1215      N1219   1.157       .  T
C1216      N1220   1.157       .  T
C1217      N1222   1.157       .  T
C1218      N1221   1.157       .  T
C1227      C1228   1.414       .  A
C1227      C1232   1.408       .  A
C1227      C1241   1.443       .  S
C1228      C1233   1.498       .  S
C1228      C1229   1.399       .  A
C1229      C1230   1.398       .  A
C1229      H1248   1.085       .  S
C1230      C1231   1.421       .  A
C1230      C1242   1.440       .  S
C1231      C1232   1.409       .  A
C1232      H1247   1.084       .  S
C1233      C1234   1.407       .  A
C1233      C1238   1.416       .  A
C1234      C1235   1.405       .  A
C1234      H1249   1.084       .  S
C1235      C1236   1.413       .  A
C1235      C1239   1.444       .  S
C1236      C1237   1.402       .  A
C1237      C1238   1.401       .  A
C1237      H1250   1.085       .  S
C1238      C1240   1.445       .  S
C1239      N1243   1.157       .  T
C1240      N1244   1.157       .  T
C1241      N1246   1.157       .  T
C1242      N1245   1.156       .  T
O1251      C1259   1.294       .  A
O1251     Co1271   2.059       .  S
O1252      C1260   1.267       .  A
O1253      C1261   1.263       .  A
O1254      C1262   1.271       .  A
O1255      C1261   1.268       .  A
O1255     Co1522   2.006       .  S
O1256      C1262   1.297       .  A
O1256     Co1771   2.075       .  S
O1257      C1260   1.263       .  A
O1258      C1259   1.274       .  A
O1258     Co1273   1.911   1_655  S
C1259      C1486   1.483       .  S
C1260      C1313   1.493       .  S
C1261      C1366   1.487       .  S
C1262      C1390   1.494       .  S
O1263      C1276   1.253       .  A
O1263     Co1521   1.994   1_556  S
O1264      C1277   1.266       .  A
O1264     Co1772   1.976       .  S
O1265      C1278   1.242       .  A
O1266      C1279   1.275       .  A
O1267      C1279   1.266       .  A
O1267     Co1272   1.975       .  S
O1268      C1278   1.255       .  A
O1269      C1276   1.246       .  A
O1269     Co1274   1.966   1_656  S
O1270      C1277   1.272       .  A
Co1271     O1756   2.071       .  S
Co1271     O1513   1.996       .  S
Co1271     O1275   2.246   1_655  S
Co1272     O1505   2.005   1_546  S
Co1272     O1764   1.976   1_545  S
Co1273     O1275   1.938       .  S
Co1274     O1525   1.942   1_554  S
O1275     Co1524   1.941       .  S
C1276      C1433   1.479       .  S
C1277      C1457   1.485       .  S
C1278      C1414   1.478       .  S
C1279      C1342   1.495       .  S
O1280      C1288   1.260       .  A
O1280     Co1300   2.013       .  S
O1281      C1289   1.279       .  A
O1281     Co1301   2.024       .  S
O1282      C1290   1.262       .  A
O1282     Co1302   1.967       .  S
O1283      C1291   1.265       .  A
O1283     Co1303   1.892       .  S
O1284      C1290   1.273       .  A
O1284     Co1301   2.026       .  S
O1285      C1291   1.296       .  A
O1285     Co1300   2.103       .  S
O1286      C1289   1.268       .  A
O1286     Co1303   1.972       .  S
O1287      C1288   1.252       .  A
O1287     Co1302   1.964       .  S
C1288      C1409   1.482       .  S
C1289      C1337   1.494       .  S
C1290      C1462   1.481       .  S
C1291      C1438   1.480       .  S
O1292      C1305   1.263       .  A
O1292     Co1300   1.880       .  S
O1293      C1306   1.267       .  A
O1293     Co1301   1.978       .  S
O1294      C1307   1.284       .  A
O1294     Co1302   2.047       .  S
O1295      C1308   1.265       .  A
O1295     Co1303   2.005       .  S
O1296      C1308   1.261       .  A
O1296     Co1301   1.979       .  S
O1297      C1307   1.268       .  A
O1297     Co1300   1.964       .  S
O1298      C1305   1.301       .  A
O1298     Co1303   2.124       .  S
O1299      C1306   1.270       .  A
O1299     Co1302   2.008       .  S
Co1300     O1304   2.008       .  S
Co1301     O1304   2.034       .  S
Co1302     O1304   2.017       .  S
Co1303     O1304   2.002       .  S
C1305      C1385   1.488       .  S
C1306      C1361   1.493       .  S
C1307      C1481   1.497       .  S
C1308      C1318   1.495       .  S
C1309      C1310   1.404       .  A
C1309      C1314   1.398       .  A
C1309      C1323   1.444       .  S
C1310      C1315   1.483       .  S
C1310      C1311   1.402       .  A
C1311      C1312   1.405       .  A
C1311      H1330   1.085       .  S
C1312      C1313   1.418       .  A
C1312      C1324   1.442       .  S
C1313      C1314   1.411       .  A
C1314      H1329   1.086       .  S
C1315      C1316   1.400       .  A
C1315      C1320   1.406       .  A
C1316      C1317   1.401       .  A
C1316      H1331   1.085       .  S
C1317      C1318   1.420       .  A
C1317      C1321   1.444       .  S
C1318      C1319   1.411       .  A
C1319      C1320   1.403       .  A
C1319      H1332   1.084       .  S
C1320      C1322   1.444       .  S
C1321      N1325   1.157       .  T
C1322      N1326   1.157       .  T
C1323      N1328   1.157       .  T
C1324      N1327   1.157       .  T
C1333      C1334   1.409       .  A
C1333      C1338   1.400       .  A
C1333      C1347   1.444       .  S
C1334      C1339   1.490       .  S
C1334      C1335   1.403       .  A
C1335      C1336   1.403       .  A
C1335      H1354   1.085       .  S
C1336      C1337   1.419       .  A
C1336      C1348   1.444       .  S
C1337      C1338   1.409       .  A
C1338      H1353   1.085       .  S
C1339      C1340   1.402       .  A
C1339      C1344   1.409       .  A
C1340      C1341   1.400       .  A
C1340      H1355   1.086       .  S
C1341      C1342   1.420       .  A
C1341      C1345   1.445       .  S
C1342      C1343   1.410       .  A
C1343      C1344   1.405       .  A
C1343      H1356   1.085       .  S
C1344      C1346   1.444       .  S
C1345      N1349   1.158       .  T
C1346      N1350   1.157       .  T
C1347      N1352   1.157       .  T
C1348      N1351   1.158       .  T
C1357      C1358   1.410       .  A
C1357      C1362   1.401       .  A
C1357      C1371   1.444       .  S
C1358      C1363   1.486       .  S
C1358      C1359   1.400       .  A
C1359      C1360   1.402       .  A
C1359      H1378   1.084       .  S
C1360      C1361   1.421       .  A
C1360      C1372   1.444       .  S
C1361      C1362   1.407       .  A
C1362      H1377   1.084       .  S
C1363      C1364   1.401       .  A
C1363      C1368   1.407       .  A
C1364      C1365   1.400       .  A
C1364      H1379   1.085       .  S
C1365      C1366   1.415       .  A
C1365      C1369   1.440       .  S
C1366      C1367   1.409       .  A
C1367      C1368   1.402       .  A
C1367      H1380   1.085       .  S
C1368      C1370   1.443       .  S
C1369      N1373   1.156       .  T
C1370      N1374   1.157       .  T
C1371      N1376   1.157       .  T
C1372      N1375   1.157       .  T
C1381      C1382   1.406       .  A
C1381      C1386   1.399       .  A
C1381      C1395   1.444       .  S
C1382      C1387   1.483       .  S
C1382      C1383   1.403       .  A
C1383      C1384   1.403       .  A
C1383      H1402   1.084       .  S
C1384      C1385   1.414       .  A
C1384      C1396   1.441       .  S
C1385      C1386   1.410       .  A
C1386      H1401   1.084       .  S
C1387      C1388   1.398       .  A
C1387      C1392   1.409       .  A
C1388      C1389   1.399       .  A
C1388      H1403   1.086       .  S
C1389      C1390   1.421       .  A
C1389      C1393   1.444       .  S
C1390      C1391   1.410       .  A
C1391      C1392   1.402       .  A
C1391      H1404   1.086       .  S
C1392      C1394   1.444       .  S
C1393      N1397   1.157       .  T
C1394      N1398   1.157       .  T
C1395      N1400   1.157       .  T
C1396      N1399   1.156       .  T
C1405      C1406   1.412       .  A
C1405      C1410   1.405       .  A
C1405      C1419   1.443       .  S
C1406      C1411   1.488       .  S
C1406      C1407   1.401       .  A
C1407      C1408   1.397       .  A
C1407      H1426   1.085       .  S
C1408      C1409   1.417       .  A
C1408      C1420   1.446       .  S
C1409      C1410   1.405       .  A
C1410      H1425   1.084       .  S
C1411      C1412   1.405       .  A
C1411      C1416   1.412       .  A
C1412      C1413   1.403       .  A
C1412      H1427   1.083       .  S
C1413      C1414   1.413       .  A
C1413      C1417   1.444       .  S
C1414      C1415   1.403       .  A
C1415      C1416   1.399       .  A
C1415      H1428   1.085       .  S
C1416      C1418   1.444       .  S
C1417      N1421   1.157       .  T
C1418      N1422   1.157       .  T
C1419      N1424   1.157       .  T
C1420      N1423   1.158       .  T
C1429      C1430   1.417       .  A
C1429      C1434   1.404       .  A
C1429      C1443   1.444       .  S
C1430      C1435   1.497       .  S
C1430      C1431   1.405       .  A
C1431      C1432   1.399       .  A
C1431      H1450   1.083       .  S
C1432      C1433   1.412       .  A
C1432      C1444   1.445       .  S
C1433      C1434   1.403       .  A
C1434      H1449   1.084       .  S
C1435      C1436   1.407       .  A
C1435      C1440   1.415       .  A
C1436      C1437   1.403       .  A
C1436      H1451   1.083       .  S
C1437      C1438   1.412       .  A
C1437      C1441   1.444       .  S
C1438      C1439   1.403       .  A
C1439      C1440   1.400       .  A
C1439      H1452   1.085       .  S
C1440      C1442   1.444       .  S
C1441      N1445   1.157       .  T
C1442      N1446   1.157       .  T
C1443      N1448   1.157       .  T
C1444      N1447   1.157       .  T
C1453      C1454   1.411       .  A
C1453      C1458   1.405       .  A
C1453      C1467   1.443       .  S
C1454      C1459   1.488       .  S
C1454      C1455   1.402       .  A
C1455      C1456   1.397       .  A
C1455      H1474   1.085       .  S
C1456      C1457   1.416       .  A
C1456      C1468   1.445       .  S
C1457      C1458   1.407       .  A
C1458      H1473   1.084       .  S
C1459      C1460   1.404       .  A
C1459      C1464   1.412       .  A
C1460      C1461   1.400       .  A
C1460      H1475   1.082       .  S
C1461      C1462   1.413       .  A
C1461      C1465   1.444       .  S
C1462      C1463   1.406       .  A
C1463      C1464   1.403       .  A
C1463      H1476   1.084       .  S
C1464      C1466   1.444       .  S
C1465      N1469   1.157       .  T
C1466      N1470   1.157       .  T
C1467      N1472   1.157       .  T
C1468      N1471   1.157       .  T
C1477      C1478   1.415       .  A
C1477      C1482   1.408       .  A
C1477      C1491   1.443       .  S
C1478      C1483   1.498       .  S
C1478      C1479   1.400       .  A
C1479      C1480   1.397       .  A
C1479      H1498   1.085       .  S
C1480      C1481   1.420       .  A
C1480      C1492   1.440       .  S
C1481      C1482   1.409       .  A
C1482      H1497   1.084       .  S
C1483      C1484   1.407       .  A
C1483      C1488   1.417       .  A
C1484      C1485   1.405       .  A
C1484      H1499   1.084       .  S
C1485      C1486   1.413       .  A
C1485      C1489   1.444       .  S
C1486      C1487   1.402       .  A
C1487      C1488   1.400       .  A
C1487      H1500   1.085       .  S
C1488      C1490   1.445       .  S
C1489      N1493   1.157       .  T
C1490      N1494   1.157       .  T
C1491      N1496   1.157       .  T
C1492      N1495   1.156       .  T
O1501      C1509   1.294       .  A
O1501     Co1521   2.058   1_565  S
O1502      C1510   1.267       .  A
O1502     Co1772   2.001   1_554  S
O1503      C1511   1.264       .  A
O1504      C1512   1.272       .  A
O1504     Co1774   1.894   1_655  S
O1505      C1511   1.268       .  A
O1506      C1512   1.297       .  A
O1507      C1510   1.263       .  A
O1508      C1509   1.274       .  A
O1508     Co1523   1.913   1_655  S
C1509      C1736   1.484       .  S
C1510      C1563   1.493       .  S
C1511      C1616   1.487       .  S
C1512      C1640   1.493       .  S
O1513      C1526   1.253       .  A
O1514      C1527   1.266       .  A
O1515      C1528   1.241       .  A
O1515     Co1773   1.960   1_655  S
O1516      C1529   1.274       .  A
O1517      C1529   1.266       .  A
O1517     Co1522   1.977       .  S
O1518      C1528   1.255       .  A
O1518     Co1771   2.007   1_565  S
O1519      C1526   1.246       .  A
O1519     Co1524   1.965   1_655  S
O1520      C1527   1.272       .  A
Co1521     O1768   2.008   1_544  S
Co1521     O1525   2.244   1_654  S
Co1522     O1752   2.002       .  S
Co1523     O1765   1.960   1_454  S
Co1523     O1525   1.937   1_564  S
Co1524     O1754   1.895   1_455  S
C1526      C1683   1.478       .  S
C1527      C1707   1.485       .  S
C1528      C1664   1.479       .  S
C1529      C1592   1.496       .  S
O1530      C1538   1.261       .  A
O1530     Co1550   2.013       .  S
O1531      C1539   1.279       .  A
O1531     Co1551   2.025       .  S
O1532      C1540   1.262       .  A
O1532     Co1552   1.968       .  S
O1533      C1541   1.264       .  A
O1533     Co1553   1.890       .  S
O1534      C1540   1.273       .  A
O1534     Co1551   2.026       .  S
O1535      C1541   1.297       .  A
O1535     Co1550   2.104       .  S
O1536      C1539   1.269       .  A
O1536     Co1553   1.973       .  S
O1537      C1538   1.252       .  A
O1537     Co1552   1.963       .  S
C1538      C1659   1.481       .  S
C1539      C1587   1.495       .  S
C1540      C1712   1.481       .  S
C1541      C1688   1.480       .  S
O1542      C1555   1.263       .  A
O1542     Co1550   1.881       .  S
O1543      C1556   1.266       .  A
O1543     Co1551   1.976       .  S
O1544      C1557   1.284       .  A
O1544     Co1552   2.048       .  S
O1545      C1558   1.264       .  A
O1545     Co1553   2.005       .  S
O1546      C1558   1.260       .  A
O1546     Co1551   1.977       .  S
O1547      C1557   1.267       .  A
O1547     Co1550   1.964       .  S
O1548      C1555   1.301       .  A
O1548     Co1553   2.124       .  S
O1549      C1556   1.270       .  A
O1549     Co1552   2.007       .  S
Co1550     O1554   2.008       .  S
Co1551     O1554   2.032       .  S
Co1552     O1554   2.018       .  S
Co1553     O1554   2.002       .  S
C1555      C1635   1.487       .  S
C1556      C1611   1.492       .  S
C1557      C1731   1.499       .  S
C1558      C1568   1.494       .  S
C1559      C1560   1.404       .  A
C1559      C1564   1.398       .  A
C1559      C1573   1.444       .  S
C1560      C1565   1.482       .  S
C1560      C1561   1.402       .  A
C1561      C1562   1.404       .  A
C1561      H1580   1.085       .  S
C1562      C1563   1.418       .  A
C1562      C1574   1.442       .  S
C1563      C1564   1.411       .  A
C1564      H1579   1.086       .  S
C1565      C1566   1.400       .  A
C1565      C1570   1.406       .  A
C1566      C1567   1.400       .  A
C1566      H1581   1.085       .  S
C1567      C1568   1.420       .  A
C1567      C1571   1.444       .  S
C1568      C1569   1.411       .  A
C1569      C1570   1.403       .  A
C1569      H1582   1.084       .  S
C1570      C1572   1.444       .  S
C1571      N1575   1.157       .  T
C1572      N1576   1.157       .  T
C1573      N1578   1.157       .  T
C1574      N1577   1.157       .  T
C1583      C1584   1.410       .  A
C1583      C1588   1.400       .  A
C1583      C1597   1.444       .  S
C1584      C1589   1.492       .  S
C1584      C1585   1.404       .  A
C1585      C1586   1.404       .  A
C1585      H1604   1.085       .  S
C1586      C1587   1.419       .  A
C1586      C1598   1.444       .  S
C1587      C1588   1.409       .  A
C1588      H1603   1.085       .  S
C1589      C1590   1.402       .  A
C1589      C1594   1.410       .  A
C1590      C1591   1.399       .  A
C1590      H1605   1.085       .  S
C1591      C1592   1.419       .  A
C1591      C1595   1.445       .  S
C1592      C1593   1.410       .  A
C1593      C1594   1.406       .  A
C1593      H1606   1.084       .  S
C1594      C1596   1.444       .  S
C1595      N1599   1.157       .  T
C1596      N1600   1.157       .  T
C1597      N1602   1.157       .  T
C1598      N1601   1.157       .  T
C1607      C1608   1.410       .  A
C1607      C1612   1.401       .  A
C1607      C1621   1.444       .  S
C1608      C1613   1.484       .  S
C1608      C1609   1.399       .  A
C1609      C1610   1.401       .  A
C1609      H1628   1.084       .  S
C1610      C1611   1.421       .  A
C1610      C1622   1.444       .  S
C1611      C1612   1.408       .  A
C1612      H1627   1.084       .  S
C1613      C1614   1.401       .  A
C1613      C1618   1.406       .  A
C1614      C1615   1.401       .  A
C1614      H1629   1.085       .  S
C1615      C1616   1.416       .  A
C1615      C1619   1.440       .  S
C1616      C1617   1.409       .  A
C1617      C1618   1.401       .  A
C1617      H1630   1.085       .  S
C1618      C1620   1.443       .  S
C1619      N1623   1.156       .  T
C1620      N1624   1.157       .  T
C1621      N1626   1.157       .  T
C1622      N1625   1.157       .  T
C1631      C1632   1.407       .  A
C1631      C1636   1.399       .  A
C1631      C1645   1.444       .  S
C1632      C1637   1.484       .  S
C1632      C1633   1.403       .  A
C1633      C1634   1.403       .  A
C1633      H1652   1.084       .  S
C1634      C1635   1.414       .  A
C1634      C1646   1.441       .  S
C1635      C1636   1.409       .  A
C1636      H1651   1.084       .  S
C1637      C1638   1.399       .  A
C1637      C1642   1.409       .  A
C1638      C1639   1.400       .  A
C1638      H1653   1.086       .  S
C1639      C1640   1.421       .  A
C1639      C1643   1.444       .  S
C1640      C1641   1.409       .  A
C1641      C1642   1.401       .  A
C1641      H1654   1.086       .  S
C1642      C1644   1.444       .  S
C1643      N1647   1.157       .  T
C1644      N1648   1.157       .  T
C1645      N1650   1.157       .  T
C1646      N1649   1.156       .  T
C1655      C1656   1.413       .  A
C1655      C1660   1.404       .  A
C1655      C1669   1.443       .  S
C1656      C1661   1.489       .  S
C1656      C1657   1.401       .  A
C1657      C1658   1.397       .  A
C1657      H1676   1.084       .  S
C1658      C1659   1.417       .  A
C1658      C1670   1.446       .  S
C1659      C1660   1.404       .  A
C1660      H1675   1.084       .  S
C1661      C1662   1.405       .  A
C1661      C1666   1.412       .  A
C1662      C1663   1.403       .  A
C1662      H1677   1.083       .  S
C1663      C1664   1.414       .  A
C1663      C1667   1.444       .  S
C1664      C1665   1.403       .  A
C1665      C1666   1.398       .  A
C1665      H1678   1.085       .  S
C1666      C1668   1.444       .  S
C1667      N1671   1.157       .  T
C1668      N1672   1.157       .  T
C1669      N1674   1.157       .  T
C1670      N1673   1.158       .  T
C1679      C1680   1.416       .  A
C1679      C1684   1.404       .  A
C1679      C1693   1.444       .  S
C1680      C1685   1.496       .  S
C1680      C1681   1.404       .  A
C1681      C1682   1.399       .  A
C1681      H1700   1.084       .  S
C1682      C1683   1.413       .  A
C1682      C1694   1.445       .  S
C1683      C1684   1.403       .  A
C1684      H1699   1.084       .  S
C1685      C1686   1.407       .  A
C1685      C1690   1.415       .  A
C1686      C1687   1.402       .  A
C1686      H1701   1.083       .  S
C1687      C1688   1.412       .  A
C1687      C1691   1.444       .  S
C1688      C1689   1.403       .  A
C1689      C1690   1.400       .  A
C1689      H1702   1.085       .  S
C1690      C1692   1.445       .  S
C1691      N1695   1.157       .  T
C1692      N1696   1.157       .  T
C1693      N1698   1.157       .  T
C1694      N1697   1.157       .  T
C1703      C1704   1.411       .  A
C1703      C1708   1.405       .  A
C1703      C1717   1.443       .  S
C1704      C1709   1.488       .  S
C1704      C1705   1.402       .  A
C1705      C1706   1.397       .  A
C1705      H1724   1.085       .  S
C1706      C1707   1.416       .  A
C1706      C1718   1.446       .  S
C1707      C1708   1.407       .  A
C1708      H1723   1.084       .  S
C1709      C1710   1.404       .  A
C1709      C1714   1.412       .  A
C1710      C1711   1.400       .  A
C1710      H1725   1.082       .  S
C1711      C1712   1.413       .  A
C1711      C1715   1.444       .  S
C1712      C1713   1.406       .  A
C1713      C1714   1.403       .  A
C1713      H1726   1.085       .  S
C1714      C1716   1.444       .  S
C1715      N1719   1.157       .  T
C1716      N1720   1.157       .  T
C1717      N1722   1.157       .  T
C1718      N1721   1.157       .  T
C1727      C1728   1.414       .  A
C1727      C1732   1.408       .  A
C1727      C1741   1.443       .  S
C1728      C1733   1.499       .  S
C1728      C1729   1.400       .  A
C1729      C1730   1.398       .  A
C1729      H1748   1.085       .  S
C1730      C1731   1.421       .  A
C1730      C1742   1.441       .  S
C1731      C1732   1.409       .  A
C1732      H1747   1.084       .  S
C1733      C1734   1.407       .  A
C1733      C1738   1.416       .  A
C1734      C1735   1.405       .  A
C1734      H1749   1.083       .  S
C1735      C1736   1.413       .  A
C1735      C1739   1.444       .  S
C1736      C1737   1.402       .  A
C1737      C1738   1.401       .  A
C1737      H1750   1.085       .  S
C1738      C1740   1.445       .  S
C1739      N1743   1.157       .  T
C1740      N1744   1.157       .  T
C1741      N1746   1.157       .  T
C1742      N1745   1.156       .  T
O1751      C1759   1.294       .  A
O1751     Co1771   2.060   1_565  S
O1752      C1760   1.267       .  A
O1753      C1761   1.263       .  A
O1754      C1762   1.272       .  A
O1755      C1761   1.268       .  A
O1756      C1762   1.296       .  A
O1757      C1760   1.263       .  A
O1758      C1759   1.274       .  A
O1758     Co1773   1.911   1_655  S
C1759      C1986   1.483       .  S
C1760      C1813   1.493       .  S
C1761      C1866   1.486       .  S
C1762      C1890   1.493       .  S
O1763      C1776   1.253       .  A
O1764      C1777   1.266       .  A
O1765      C1778   1.241       .  A
O1766      C1779   1.275       .  A
O1767      C1779   1.266       .  A
O1767     Co1772   1.975       .  S
O1768      C1778   1.255       .  A
O1769      C1776   1.246       .  A
O1769     Co1774   1.966   1_656  S
O1770      C1777   1.271       .  A
Co1771     O1775   2.244   1_655  S
Co1773     O1775   1.937   1_565  S
C1776      C1933   1.479       .  S
C1777      C1957   1.483       .  S
C1778      C1914   1.478       .  S
C1779      C1842   1.495       .  S
O1780      C1788   1.261       .  A
O1780     Co1800   2.013       .  S
O1781      C1789   1.279       .  A
O1781     Co1801   2.025       .  S
O1782      C1790   1.263       .  A
O1782     Co1802   1.968       .  S
O1783      C1791   1.264       .  A
O1783     Co1803   1.891       .  S
O1784      C1790   1.273       .  A
O1784     Co1801   2.025       .  S
O1785      C1791   1.297       .  A
O1785     Co1800   2.104       .  S
O1786      C1789   1.269       .  A
O1786     Co1803   1.972       .  S
O1787      C1788   1.252       .  A
O1787     Co1802   1.963       .  S
C1788      C1909   1.481       .  S
C1789      C1837   1.495       .  S
C1790      C1962   1.482       .  S
C1791      C1938   1.480       .  S
O1792      C1805   1.264       .  A
O1792     Co1800   1.883       .  S
O1793      C1806   1.267       .  A
O1793     Co1801   1.977       .  S
O1794      C1807   1.284       .  A
O1794     Co1802   2.047       .  S
O1795      C1808   1.265       .  A
O1795     Co1803   2.004       .  S
O1796      C1808   1.261       .  A
O1796     Co1801   1.980       .  S
O1797      C1807   1.267       .  A
O1797     Co1800   1.964       .  S
O1798      C1805   1.300       .  A
O1798     Co1803   2.122       .  S
O1799      C1806   1.270       .  A
O1799     Co1802   2.007       .  S
Co1800     O1804   2.010       .  S
Co1801     O1804   2.035       .  S
Co1802     O1804   2.017       .  S
Co1803     O1804   2.000       .  S
C1805      C1885   1.486       .  S
C1806      C1861   1.493       .  S
C1807      C1981   1.499       .  S
C1808      C1818   1.495       .  S
C1809      C1810   1.405       .  A
C1809      C1814   1.399       .  A
C1809      C1823   1.444       .  S
C1810      C1815   1.483       .  S
C1810      C1811   1.402       .  A
C1811      C1812   1.405       .  A
C1811      H1830   1.085       .  S
C1812      C1813   1.418       .  A
C1812      C1824   1.442       .  S
C1813      C1814   1.411       .  A
C1814      H1829   1.086       .  S
C1815      C1816   1.400       .  A
C1815      C1820   1.406       .  A
C1816      C1817   1.401       .  A
C1816      H1831   1.085       .  S
C1817      C1818   1.420       .  A
C1817      C1821   1.444       .  S
C1818      C1819   1.411       .  A
C1819      C1820   1.403       .  A
C1819      H1832   1.084       .  S
C1820      C1822   1.444       .  S
C1821      N1825   1.157       .  T
C1822      N1826   1.157       .  T
C1823      N1828   1.157       .  T
C1824      N1827   1.157       .  T
C1833      C1834   1.410       .  A
C1833      C1838   1.400       .  A
C1833      C1847   1.444       .  S
C1834      C1839   1.492       .  S
C1834      C1835   1.404       .  A
C1835      C1836   1.404       .  A
C1835      H1854   1.085       .  S
C1836      C1837   1.419       .  A
C1836      C1848   1.444       .  S
C1837      C1838   1.409       .  A
C1838      H1853   1.085       .  S
C1839      C1840   1.402       .  A
C1839      C1844   1.410       .  A
C1840      C1841   1.400       .  A
C1840      H1855   1.086       .  S
C1841      C1842   1.420       .  A
C1841      C1845   1.445       .  S
C1842      C1843   1.410       .  A
C1843      C1844   1.406       .  A
C1843      H1856   1.085       .  S
C1844      C1846   1.444       .  S
C1845      N1849   1.157       .  T
C1846      N1850   1.157       .  T
C1847      N1852   1.157       .  T
C1848      N1851   1.158       .  T
C1857      C1858   1.409       .  A
C1857      C1862   1.401       .  A
C1857      C1871   1.444       .  S
C1858      C1863   1.484       .  S
C1858      C1859   1.399       .  A
C1859      C1860   1.401       .  A
C1859      H1878   1.084       .  S
C1860      C1861   1.422       .  A
C1860      C1872   1.444       .  S
C1861      C1862   1.408       .  A
C1862      H1877   1.084       .  S
C1863      C1864   1.401       .  A
C1863      C1868   1.406       .  A
C1864      C1865   1.401       .  A
C1864      H1879   1.085       .  S
C1865      C1866   1.416       .  A
C1865      C1869   1.440       .  S
C1866      C1867   1.409       .  A
C1867      C1868   1.401       .  A
C1867      H1880   1.085       .  S
C1868      C1870   1.443       .  S
C1869      N1873   1.156       .  T
C1870      N1874   1.157       .  T
C1871      N1876   1.157       .  T
C1872      N1875   1.157       .  T
C1881      C1882   1.407       .  A
C1881      C1886   1.399       .  A
C1881      C1895   1.444       .  S
C1882      C1887   1.482       .  S
C1882      C1883   1.402       .  A
C1883      C1884   1.403       .  A
C1883      H1902   1.084       .  S
C1884      C1885   1.414       .  A
C1884      C1896   1.441       .  S
C1885      C1886   1.408       .  A
C1886      H1901   1.084       .  S
C1887      C1888   1.398       .  A
C1887      C1892   1.408       .  A
C1888      C1889   1.400       .  A
C1888      H1903   1.086       .  S
C1889      C1890   1.421       .  A
C1889      C1893   1.444       .  S
C1890      C1891   1.409       .  A
C1891      C1892   1.401       .  A
C1891      H1904   1.085       .  S
C1892      C1894   1.444       .  S
C1893      N1897   1.157       .  T
C1894      N1898   1.157       .  T
C1895      N1900   1.157       .  T
C1896      N1899   1.156       .  T
C1905      C1906   1.412       .  A
C1905      C1910   1.405       .  A
C1905      C1919   1.443       .  S
C1906      C1911   1.488       .  S
C1906      C1907   1.401       .  A
C1907      C1908   1.397       .  A
C1907      H1926   1.084       .  S
C1908      C1909   1.417       .  A
C1908      C1920   1.446       .  S
C1909      C1910   1.404       .  A
C1910      H1925   1.084       .  S
C1911      C1912   1.404       .  A
C1911      C1916   1.412       .  A
C1912      C1913   1.403       .  A
C1912      H1927   1.083       .  S
C1913      C1914   1.414       .  A
C1913      C1917   1.444       .  S
C1914      C1915   1.403       .  A
C1915      C1916   1.398       .  A
C1915      H1928   1.085       .  S
C1916      C1918   1.444       .  S
C1917      N1921   1.157       .  T
C1918      N1922   1.157       .  T
C1919      N1924   1.157       .  T
C1920      N1923   1.158       .  T
C1929      C1930   1.417       .  A
C1929      C1934   1.404       .  A
C1929      C1943   1.444       .  S
C1930      C1935   1.497       .  S
C1930      C1931   1.405       .  A
C1931      C1932   1.399       .  A
C1931      H1950   1.084       .  S
C1932      C1933   1.412       .  A
C1932      C1944   1.445       .  S
C1933      C1934   1.403       .  A
C1934      H1949   1.084       .  S
C1935      C1936   1.407       .  A
C1935      C1940   1.415       .  A
C1936      C1937   1.403       .  A
C1936      H1951   1.083       .  S
C1937      C1938   1.413       .  A
C1937      C1941   1.444       .  S
C1938      C1939   1.403       .  A
C1939      C1940   1.400       .  A
C1939      H1952   1.085       .  S
C1940      C1942   1.444       .  S
C1941      N1945   1.157       .  T
C1942      N1946   1.157       .  T
C1943      N1948   1.157       .  T
C1944      N1947   1.157       .  T
C1953      C1954   1.410       .  A
C1953      C1958   1.405       .  A
C1953      C1967   1.443       .  S
C1954      C1959   1.485       .  S
C1954      C1955   1.401       .  A
C1955      C1956   1.397       .  A
C1955      H1974   1.085       .  S
C1956      C1957   1.415       .  A
C1956      C1968   1.445       .  S
C1957      C1958   1.407       .  A
C1958      H1973   1.084       .  S
C1959      C1960   1.403       .  A
C1959      C1964   1.410       .  A
C1960      C1961   1.400       .  A
C1960      H1975   1.082       .  S
C1961      C1962   1.414       .  A
C1961      C1965   1.444       .  S
C1962      C1963   1.406       .  A
C1963      C1964   1.402       .  A
C1963      H1976   1.084       .  S
C1964      C1966   1.444       .  S
C1965      N1969   1.157       .  T
C1966      N1970   1.157       .  T
C1967      N1972   1.157       .  T
C1968      N1971   1.157       .  T
C1977      C1978   1.415       .  A
C1977      C1982   1.408       .  A
C1977      C1991   1.443       .  S
C1978      C1983   1.499       .  S
C1978      C1979   1.400       .  A
C1979      C1980   1.398       .  A
C1979      H1998   1.085       .  S
C1980      C1981   1.421       .  A
C1980      C1992   1.441       .  S
C1981      C1982   1.409       .  A
C1982      H1997   1.084       .  S
C1983      C1984   1.408       .  A
C1983      C1988   1.417       .  A
C1984      C1985   1.406       .  A
C1984      H1999   1.084       .  S
C1985      C1986   1.412       .  A
C1985      C1989   1.444       .  S
C1986      C1987   1.402       .  A
C1987      C1988   1.401       .  A
C1987      H2000   1.085       .  S
C1988      C1990   1.445       .  S
C1989      N1993   1.157       .  T
C1990      N1994   1.157       .  T
C1991      N1996   1.157       .  T
C1992      N1995   1.156       .  T
