geometry optimzed in LAMMPS
_audit_creation_date              2020-11-30 
_audit_creation_method            'lammps2cif' 
_symmetry_space_group_name_H-M    'P1' 
_symmetry_Int_Tables_number       1 
_symmetry_cell_setting            triclinic 
loop_ 
_symmetry_equiv_pos_as_xyz 
  x,y,z 
_cell_length_a                    43.1667392 
_cell_length_b                    33.29755022241736 
_cell_length_c                    33.272885464433024 
_cell_angle_alpha                 89.99886132968096 
_cell_angle_beta                  90.00187738904503 
_cell_angle_gamma                 89.9984352455446 
loop_ 
_atom_site_label 
_atom_site_type_symbol 
_atom_site_fract_x 
_atom_site_fract_y 
_atom_site_fract_z 
_atom_site_charge 
N1          N  0.46495269  0.45339770  0.07521037    -0.08100
N2          N  0.44199900  0.44744573  0.10074428    -0.60200
N3          N  0.03631250  0.42550456  0.04727304    -0.07800
N4          N  0.05929179  0.40001467  0.05317333    -0.62300
N5          N  0.03630348  0.45341644  0.07524464    -0.07400
N6          N  0.05927454  0.44749384  0.10076628    -0.60200
N7          N  0.46495027  0.42548604  0.04723856    -0.07100
N8          N  0.44198505  0.39997388  0.05314342    -0.62700
C9          C  0.42782873  0.41405447  0.08659403     0.94100
C10         C  0.07345666  0.41411009  0.08661106     0.93900
N11         N  0.03632701  0.45340528  0.42478073    -0.08300
N12         N  0.05927385  0.44744627  0.39923793    -0.60800
N13         N  0.46496168  0.42550833  0.45273267    -0.06400
N14         N  0.44196468  0.40003983  0.44685686    -0.62000
N15         N  0.46498184  0.45340565  0.42474504    -0.08300
N16         N  0.44201008  0.44748229  0.39922581    -0.61100
N17         N  0.03632863  0.42549287  0.45275321    -0.06000
N18         N  0.05928565  0.39997097  0.44683756    -0.62100
Mn19       Mn  0.50063942  0.42417300  0.99999885     1.18400
C20         C  0.07343832  0.41404781  0.41338314     0.96200
C21         C  0.42780829  0.41412373  0.41340658     0.96800
N22         N  0.03630688  0.04787165  0.07522332    -0.08300
N23         N  0.05929952  0.05376950  0.10071736    -0.64600
N24         N  0.46495265  0.07580939  0.04724684    -0.07100
N25         N  0.44200497  0.10134068  0.05317706    -0.65300
N26         N  0.46494339  0.04787551  0.07519824    -0.07800
N27         N  0.44198483  0.05381638  0.10072767    -0.64900
N28         N  0.03629445  0.07581076  0.04727672    -0.06700
N29         N  0.05926695  0.10130841  0.05318284    -0.65600
Mn30       Mn  0.00062361  0.00064184  0.07655206     1.10700
C31         C  0.07346121  0.08717761  0.08658565     0.97400
C32         C  0.42783593  0.08723667  0.08660696     0.97500
N33         N  0.46497251  0.04786694  0.42475679    -0.07800
N34         N  0.44199597  0.05377992  0.39924176    -0.63200
N35         N  0.03630996  0.07582178  0.45274855    -0.07200
N36         N  0.05926112  0.10135031  0.44682718    -0.59900
N37         N  0.03632891  0.04788423  0.42480133    -0.08500
N38         N  0.05929728  0.05381910  0.39928592    -0.62800
N39         N  0.46496396  0.07578534  0.45272303    -0.07500
N40         N  0.44198424  0.10127273  0.44682116    -0.60000
Mn41       Mn  0.00065649  0.00064218  0.42343688     1.20200
Mn42       Mn  0.00062917  0.07713442  0.99999801     1.10100
Cl43       Cl  0.00063775  0.00064765  0.99999634    -0.87900
C44         C  0.42781560  0.08716672  0.41339212     0.94400
C45         C  0.07344252  0.08723956  0.41340780     0.94200
N46         N  0.28629544  0.29786787  0.32525622    -0.08100
N47         N  0.30926712  0.30379129  0.35077557    -0.60200
N48         N  0.21494861  0.32578065  0.29724811    -0.07800
N49         N  0.19199155  0.35130263  0.30316369    -0.62300
N50         N  0.21495027  0.29786835  0.32522061    -0.07400
N51         N  0.19200333  0.30382724  0.35076331    -0.60200
N52         N  0.28631562  0.32576511  0.29726860    -0.07100
N53         N  0.30931264  0.35123366  0.30314436    -0.62700
C54         C  0.32346897  0.33714970  0.33659465     0.94100
C55         C  0.17783893  0.33722580  0.33661815     0.93900
N56         N  0.21497380  0.29785719  0.17475663    -0.08300
N57         N  0.19200270  0.30377979  0.14923508    -0.60800
N58         N  0.28632706  0.32578746  0.20276291    -0.06400
N59         N  0.30929213  0.35129979  0.19685785    -0.62000
N60         N  0.28632450  0.29787588  0.17479100    -0.08300
N61         N  0.30927819  0.30382780  0.14925709    -0.61100
N62         N  0.21496479  0.32576905  0.20272826    -0.06000
N63         N  0.19198546  0.35125890  0.19682803    -0.62100
Mn64       Mn  0.25063785  0.32710057  0.25000246     1.18400
C65         C  0.17782065  0.33716362  0.16339021     0.96200
C66         C  0.32344854  0.33721901  0.16340737     0.96800
N67         N  0.21494833  0.20338933  0.32520003    -0.08300
N68         N  0.19197996  0.19745446  0.35071545    -0.65400
N69         N  0.28631320  0.17548817  0.29727834    -0.07100
N70         N  0.30929294  0.15000079  0.30318012    -0.65300
N71         N  0.28630481  0.20340665  0.32524452    -0.07800
N72         N  0.30928128  0.19749362  0.35075966    -0.64900
N73         N  0.21496726  0.17545179  0.29725280    -0.06700
N74         N  0.19201612  0.14992325  0.30317420    -0.65600
Mn75       Mn  0.25062077  0.25063140  0.32656444     1.10700
C76         C  0.17783472  0.16403400  0.33659358     0.97400
C77         C  0.32346164  0.16410687  0.33660913     0.97500
N78         N  0.28633395  0.20339812  0.17480316    -0.07800
N79         N  0.30929246  0.19745721  0.14927365    -0.63200
N80         N  0.21498286  0.17546271  0.20272453    -0.07200
N81         N  0.19201034  0.14996511  0.19681840    -0.59900
N82         N  0.21497031  0.20340192  0.17477801    -0.08500
N83         N  0.19197775  0.19750404  0.14928385    -0.62800
N84         N  0.28632456  0.17546416  0.20275447    -0.07500
N85         N  0.30927228  0.14993284  0.19682437    -0.60000
Mn86       Mn  0.25065363  0.25063171  0.17344926     1.20200
Mn87       Mn  0.25064805  0.17413913  0.25000328     1.10100
Cl88       Cl  0.25063952  0.25062590  0.25000500    -0.87900
C89         C  0.32344124  0.16403681  0.16339436     0.94400
C90         C  0.17781595  0.16409605  0.16341570     0.94200
C91         C  0.11341770  0.09019092  0.14099965    -0.15300
C92         C  0.10030981  0.10667001  0.10605661     0.06800
C93         C  0.11278187  0.14227594  0.09021755    -0.15300
C94         C  0.13785944  0.16108278  0.10900150    -0.15300
C95         C  0.15096735  0.14460365  0.14394460     0.06800
C96         C  0.13849526  0.10899767  0.15978366    -0.15300
H97         H  0.10426585  0.06278071  0.15388463     0.10800
H98         H  0.10311625  0.15568051  0.06334195     0.10800
H99         H  0.14701119  0.18849305  0.09611656     0.10800
H100        H  0.14816070  0.09559310  0.18665918     0.10800
C101        C  0.11304449  0.14201488  0.41007060    -0.15300
C102        C  0.10028594  0.10672036  0.39392829     0.06800
C103        C  0.11312674  0.09050526  0.35869614    -0.15300
C104        C  0.13823278  0.10925878  0.33993082    -0.15300
C105        C  0.15099133  0.14455326  0.35607312     0.06800
C106        C  0.13815055  0.16076840  0.39130523    -0.15300
H107        H  0.10359403  0.15520200  0.43718070     0.10800
H108        H  0.10374237  0.06334365  0.34556820     0.10800
H109        H  0.14768319  0.09607161  0.31282071     0.10800
H110        H  0.14753517  0.18793002  0.40443321     0.10800
C111        C  0.11312448  0.35940636  0.08981738    -0.15300
C112        C  0.10030293  0.39461077  0.10607996     0.06800
C113        C  0.11306682  0.41068055  0.14142488    -0.15300
C114        C  0.13815272  0.39186717  0.16018402    -0.15300
C115        C  0.15097429  0.35666281  0.14392145     0.06800
C116        C  0.13821041  0.34059300  0.10857659    -0.15300
H117        H  0.10373693  0.34633266  0.06261559     0.10800
H118        H  0.10363244  0.43776580  0.15465101     0.10800
H119        H  0.14754050  0.40494124  0.18738572     0.10800
H120        H  0.14764474  0.31350732  0.09535072     0.10800
C121        C  0.38819326  0.09055590  0.14136367    -0.15300
C122        C  0.40099584  0.10672104  0.10608617     0.06800
C123        C  0.38819598  0.14196544  0.08988593    -0.15300
C124        C  0.36308402  0.16071767  0.10863761    -0.15300
C125        C  0.35028140  0.14455248  0.14391516     0.06800
C126        C  0.36308128  0.10930803  0.16011543    -0.15300
H127        H  0.39761342  0.06343643  0.15453864     0.10800
H128        H  0.39761457  0.15511007  0.06273645     0.10800
H129        H  0.35366424  0.18783725  0.09546283     0.10800
H130        H  0.35366258  0.09616326  0.18726470     0.10800
C131        C  0.38776546  0.35985432  0.41061670    -0.15300
C132        C  0.40096174  0.39462648  0.39393477     0.06800
C133        C  0.38858340  0.41024946  0.35815849    -0.15300
C134        C  0.36351166  0.39141908  0.33938475    -0.15300
C135        C  0.35031539  0.35664693  0.35606663     0.06800
C136        C  0.36269375  0.34102403  0.39184291    -0.15300
H137        H  0.39684100  0.34714100  0.43816694     0.10800
H138        H  0.39832183  0.43698338  0.34459268     0.10800
H139        H  0.35443585  0.40413269  0.31183457     0.10800
H140        H  0.35295545  0.31428966  0.40540885     0.10800
C141        C  0.36310883  0.16072901  0.39137548    -0.15300
C142        C  0.35030681  0.14461079  0.35607683     0.06800
C143        C  0.36308592  0.10935847  0.33986263    -0.15300
C144        C  0.38816841  0.09054454  0.35862579    -0.15300
C145        C  0.40097044  0.10666280  0.39392441     0.06800
C146        C  0.38819135  0.14191514  0.41013870    -0.15300
H147        H  0.35370448  0.18784993  0.40456484     0.10800
H148        H  0.35366924  0.09624946  0.31269478     0.10800
H149        H  0.39757269  0.06342360  0.34543641     0.10800
H150        H  0.39760811  0.15502422  0.43730643     0.10800
C151        C  0.13789706  0.39160755  0.33954451    -0.15300
C152        C  0.15099808  0.35671396  0.35609557     0.06800
C153        C  0.13849426  0.34090678  0.39171532    -0.15300
C154        C  0.11338011  0.35966597  0.41045677    -0.15300
C155        C  0.10027908  0.39455957  0.39390571     0.06800
C156        C  0.11278288  0.41036675  0.35828597    -0.15300
H157        H  0.14707715  0.40446672  0.31212185     0.10800
H158        H  0.14815403  0.31406766  0.40517020     0.10800
H159        H  0.10420025  0.34680687  0.43787960     0.10800
H160        H  0.10312266  0.43720541  0.34483073     0.10800
C161        C  0.36352417  0.39144648  0.16061310    -0.15300
C162        C  0.35028914  0.35670565  0.14392367     0.06800
C163        C  0.36265028  0.34105927  0.10814852    -0.15300
C164        C  0.38775304  0.35982701  0.08938819    -0.15300
C165        C  0.40098813  0.39456775  0.10607770     0.06800
C166        C  0.38862694  0.41021425  0.14185278    -0.15300
H167        H  0.35446317  0.40417302  0.18816401     0.10800
H168        H  0.35287864  0.31434830  0.09457692     0.10800
H169        H  0.39681427  0.34710035  0.06183749     0.10800
H170        H  0.39839849  0.43692510  0.15542425     0.10800
N171        N  0.46495276  0.45339768  0.57521027    -0.08100
N172        N  0.44199902  0.44744574  0.60074410    -0.60200
N173        N  0.03631252  0.42550452  0.54727305    -0.07800
N174        N  0.05929180  0.40001465  0.55317325    -0.62300
N175        N  0.03630349  0.45341637  0.57524475    -0.07400
N176        N  0.05927462  0.44749385  0.60076621    -0.60200
N177        N  0.46495024  0.42548606  0.54723841    -0.07100
N178        N  0.44198507  0.39997384  0.55314327    -0.62700
C179        C  0.42782872  0.41405446  0.58659386     0.94100
C180        C  0.07345655  0.41410990  0.58661113     0.93900
N181        N  0.03632698  0.45340527  0.92478070    -0.08300
N182        N  0.05927385  0.44744635  0.89923795    -0.60800
N183        N  0.46496168  0.42550836  0.95273263    -0.06400
N184        N  0.44196460  0.40003993  0.94685692    -0.62000
N185        N  0.46498177  0.45340573  0.92474511    -0.08300
N186        N  0.44201011  0.44748223  0.89922578    -0.61100
N187        N  0.03632867  0.42549288  0.95275317    -0.06000
N188        N  0.05928565  0.39997087  0.94683756    -0.62100
Mn189      Mn  0.50063940  0.42417292  0.49999896     1.18400
C190        C  0.07343832  0.41404784  0.91338321     0.96200
C191        C  0.42780824  0.41412381  0.91340665     0.96800
N192        N  0.03630684  0.04787171  0.57522339    -0.08300
N193        N  0.05929948  0.05376957  0.60071742    -0.64600
N194        N  0.46495267  0.07580944  0.54724691    -0.07100
N195        N  0.44200493  0.10134069  0.55317700    -0.65300
N196        N  0.46494326  0.04787539  0.57519817    -0.07800
N197        N  0.44198476  0.05381629  0.60072765    -0.64900
N198        N  0.03629437  0.07581075  0.54727668    -0.06700
N199        N  0.05926685  0.10130840  0.55318284    -0.65600
Mn200      Mn  0.00062357  0.00064184  0.57655209     1.10700
C201        C  0.07346125  0.08717755  0.58658557     0.97400
C202        C  0.42783596  0.08723672  0.58660699     0.97500
N203        N  0.46497242  0.04786684  0.92475684    -0.07800
N204        N  0.44199595  0.05377999  0.89924170    -0.63200
N205        N  0.03631000  0.07582178  0.95274852    -0.07200
N206        N  0.05926107  0.10135038  0.94682706    -0.59900
N207        N  0.03632890  0.04788420  0.92480123    -0.08500
N208        N  0.05929725  0.05381907  0.89928588    -0.62800
N209        N  0.46496408  0.07578543  0.95272286    -0.07500
N210        N  0.44198424  0.10127275  0.94682132    -0.60000
Mn211      Mn  0.00065648  0.00064210  0.92343687     1.20200
Mn212      Mn  0.00062915  0.07713442  0.49999801     1.10100
Cl213      Cl  0.00063771  0.00064766  0.49999632    -0.87900
C214        C  0.42781565  0.08716677  0.91339221     0.94400
C215        C  0.07344251  0.08723959  0.91340774     0.94200
N216        N  0.28629542  0.29786791  0.82525624    -0.08100
N217        N  0.30926718  0.30379126  0.85077550    -0.60200
N218        N  0.21494858  0.32578066  0.79724813    -0.07800
N219        N  0.19199150  0.35130258  0.80316363    -0.62300
N220        N  0.21495027  0.29786834  0.82522066    -0.07400
N221        N  0.19200336  0.30382725  0.85076337    -0.60200
N222        N  0.28631562  0.32576510  0.79726856    -0.07100
N223        N  0.30931255  0.35123374  0.80314445    -0.62700
C224        C  0.32346897  0.33714974  0.83659464     0.94100
C225        C  0.17783893  0.33722575  0.83661813     0.93900
N226        N  0.21497371  0.29785713  0.67475673    -0.08300
N227        N  0.19200262  0.30377971  0.64923518    -0.60800
N228        N  0.28632698  0.32578749  0.70276284    -0.06400
N229        N  0.30929216  0.35129976  0.69685796    -0.62000
N230        N  0.28632445  0.29787585  0.67479106    -0.08300
N231        N  0.30927816  0.30382779  0.64925719    -0.61100
N232        N  0.21496474  0.32576908  0.70272825    -0.06000
N233        N  0.19198540  0.35125897  0.69682813    -0.62100
Mn234      Mn  0.25063782  0.32710059  0.75000236     1.18400
C235        C  0.17782065  0.33716363  0.66339030     0.96200
C236        C  0.32344849  0.33721903  0.66340745     0.96800
N237        N  0.21494828  0.20338941  0.82519996    -0.08300
N238        N  0.19198003  0.19745452  0.85071547    -0.65400
N239        N  0.28631324  0.17548811  0.79727831    -0.07100
N240        N  0.30929301  0.15000083  0.80318005    -0.65300
N241        N  0.28630475  0.20340662  0.82524450    -0.07800
N242        N  0.30928127  0.19749368  0.85075954    -0.64900
N243        N  0.21496727  0.17545166  0.79725283    -0.06700
N244        N  0.19201611  0.14992321  0.80317420    -0.65600
Mn245      Mn  0.25062073  0.25063142  0.82656445     1.10700
C246        C  0.17783477  0.16403399  0.83659363     0.97400
C247        C  0.32346155  0.16410683  0.83660917     0.97500
N248        N  0.28633387  0.20339805  0.67480310    -0.07800
N249        N  0.30929244  0.19745719  0.64927369    -0.63200
N250        N  0.21498278  0.17546274  0.70272462    -0.07200
N251        N  0.19201030  0.14996511  0.69681840    -0.59900
N252        N  0.21497037  0.20340183  0.67477796    -0.08500
N253        N  0.19197768  0.19750408  0.64928397    -0.62800
N254        N  0.28632460  0.17546415  0.70275449    -0.07500
N255        N  0.30927230  0.14993288  0.69682428    -0.60000
Mn256      Mn  0.25065361  0.25063168  0.67344927     1.20200
Mn257      Mn  0.25064809  0.17413910  0.75000332     1.10100
Cl258      Cl  0.25063948  0.25062589  0.75000499    -0.87900
C259        C  0.32344135  0.16403690  0.66339440     0.94400
C260        C  0.17781597  0.16409594  0.66341563     0.94200
C261        C  0.11341780  0.09019080  0.64099977    -0.15300
C262        C  0.10030976  0.10667005  0.60605677     0.06800
C263        C  0.11278191  0.14227593  0.59021756    -0.15300
C264        C  0.13785941  0.16108270  0.60900158    -0.15300
C265        C  0.15096737  0.14460351  0.64394461     0.06800
C266        C  0.13849531  0.10899756  0.65978380    -0.15300
H267        H  0.10426592  0.06278055  0.65388487     0.10800
H268        H  0.10311619  0.15568074  0.56334219     0.10800
H269        H  0.14701123  0.18849302  0.59611665     0.10800
H270        H  0.14816096  0.09559288  0.68665929     0.10800
C271        C  0.11304453  0.14201487  0.91007056    -0.15300
C272        C  0.10028592  0.10672034  0.89392820     0.06800
C273        C  0.11312663  0.09050530  0.85869614    -0.15300
C274        C  0.13823271  0.10925874  0.83993082    -0.15300
C275        C  0.15099136  0.14455327  0.85607320     0.06800
C276        C  0.13815060  0.16076828  0.89130524    -0.15300
H277        H  0.10359435  0.15520177  0.93718064     0.10800
H278        H  0.10374199  0.06334376  0.84556798     0.10800
H279        H  0.14768283  0.09607181  0.81282066     0.10800
H280        H  0.14753545  0.18792976  0.90443370     0.10800
C281        C  0.11312454  0.35940637  0.58981722    -0.15300
C282        C  0.10030293  0.39461082  0.60607990     0.06800
C283        C  0.11306680  0.41068059  0.64142481    -0.15300
C284        C  0.13815268  0.39186716  0.66018405    -0.15300
C285        C  0.15097434  0.35666273  0.64392140     0.06800
C286        C  0.13821044  0.34059292  0.60857649    -0.15300
H287        H  0.10373694  0.34633288  0.56261537     0.10800
H288        H  0.10363211  0.43776582  0.65465112     0.10800
H289        H  0.14754040  0.40494114  0.68738584     0.10800
H290        H  0.14764512  0.31350725  0.59535017     0.10800
C291        C  0.38819323  0.09055586  0.64136374    -0.15300
C292        C  0.40099579  0.10672111  0.60608605     0.06800
C293        C  0.38819594  0.14196558  0.58988587    -0.15300
C294        C  0.36308402  0.16071769  0.60863760    -0.15300
C295        C  0.35028144  0.14455244  0.64391527     0.06800
C296        C  0.36308129  0.10930800  0.66011551    -0.15300
H297        H  0.39761337  0.06343629  0.65453838     0.10800
H298        H  0.39761457  0.15511031  0.56273599     0.10800
H299        H  0.35366382  0.18783715  0.59546273     0.10800
H300        H  0.35366264  0.09616335  0.68726541     0.10800
C301        C  0.38776548  0.35985437  0.91061663    -0.15300
C302        C  0.40096177  0.39462657  0.89393472     0.06800
C303        C  0.38858348  0.41024950  0.85815845    -0.15300
C304        C  0.36351172  0.39141915  0.83938467    -0.15300
C305        C  0.35031545  0.35664692  0.85606654     0.06800
C306        C  0.36269374  0.34102403  0.89184282    -0.15300
H307        H  0.39684098  0.34714115  0.93816690     0.10800
H308        H  0.39832214  0.43698332  0.84459238     0.10800
H309        H  0.35443614  0.40413254  0.81183445     0.10800
H310        H  0.35295542  0.31428961  0.90540858     0.10800
C311        C  0.36310878  0.16072899  0.89137548    -0.15300
C312        C  0.35030670  0.14461081  0.85607681     0.06800
C313        C  0.36308583  0.10935855  0.83986251    -0.15300
C314        C  0.38816838  0.09054462  0.85862585    -0.15300
C315        C  0.40097042  0.10666281  0.89392457     0.06800
C316        C  0.38819128  0.14191505  0.91013875    -0.15300
H317        H  0.35370448  0.18784986  0.90456495     0.10800
H318        H  0.35366919  0.09624954  0.81269469     0.10800
H319        H  0.39757251  0.06342369  0.84543669     0.10800
H320        H  0.39760790  0.15502404  0.93730666     0.10800
C321        C  0.13789709  0.39160737  0.83954467    -0.15300
C322        C  0.15099808  0.35671374  0.85609558     0.06800
C323        C  0.13849434  0.34090665  0.89171533    -0.15300
C324        C  0.11338015  0.35966586  0.91045685    -0.15300
C325        C  0.10027913  0.39455953  0.89390587     0.06800
C326        C  0.11278290  0.41036663  0.85828613    -0.15300
H327        H  0.14707674  0.40446640  0.81212188     0.10800
H328        H  0.14815420  0.31406751  0.90517037     0.10800
H329        H  0.10420045  0.34680691  0.93787957     0.10800
H330        H  0.10312320  0.43720530  0.84483124     0.10800
C331        C  0.36352419  0.39144642  0.66061310    -0.15300
C332        C  0.35028913  0.35670569  0.64392377     0.06800
C333        C  0.36265023  0.34105928  0.60814861    -0.15300
C334        C  0.38775299  0.35982692  0.58938815    -0.15300
C335        C  0.40098807  0.39456762  0.60607749     0.06800
C336        C  0.38862694  0.41021404  0.64185262    -0.15300
H337        H  0.35446356  0.40417313  0.68816402     0.10800
H338        H  0.35287875  0.31434841  0.59457721     0.10800
H339        H  0.39681379  0.34710036  0.56183728     0.10800
H340        H  0.39839848  0.43692447  0.65542403     0.10800
N341        N  0.46495278  0.95339771  0.07521036    -0.08100
N342        N  0.44199907  0.94744574  0.10074425    -0.60200
N343        N  0.03631251  0.92550449  0.04727307    -0.07800
N344        N  0.05929183  0.90001460  0.05317325    -0.62300
N345        N  0.03630350  0.95341634  0.07524469    -0.07400
N346        N  0.05927458  0.94749377  0.10076625    -0.60200
N347        N  0.46495024  0.92548611  0.04723851    -0.07100
N348        N  0.44198510  0.89997383  0.05314341    -0.62700
C349        C  0.42782871  0.91405456  0.08659391     0.94100
C350        C  0.07345658  0.91410994  0.08661106     0.93900
N351        N  0.03632696  0.95340522  0.42478068    -0.08300
N352        N  0.05927392  0.94744641  0.39923803    -0.60800
N353        N  0.46496163  0.92550841  0.45273270    -0.06400
N354        N  0.44196464  0.90003986  0.44685688    -0.62000
N355        N  0.46498179  0.95340563  0.42474502    -0.08300
N356        N  0.44201008  0.94748228  0.39922574    -0.61100
N357        N  0.03632868  0.92549290  0.45275320    -0.06000
N358        N  0.05928570  0.89997089  0.44683758    -0.62100
Mn359      Mn  0.50063938  0.92417298  0.99999892     1.18400
C360        C  0.07343831  0.91404784  0.41338320     0.96200
C361        C  0.42780823  0.91412387  0.41340668     0.96800
N362        N  0.03630686  0.54787169  0.07522336    -0.08300
N363        N  0.05929952  0.55376956  0.10071738    -0.64600
N364        N  0.46495263  0.57580935  0.04724684    -0.07100
N365        N  0.44200495  0.60134070  0.05317710    -0.65300
N366        N  0.46494333  0.54787548  0.07519819    -0.07800
N367        N  0.44198482  0.55381634  0.10072771    -0.64900
N368        N  0.03629436  0.57581077  0.04727671    -0.06700
N369        N  0.05926693  0.60130827  0.05318280    -0.65600
Mn370      Mn  0.00062358  0.50064186  0.07655205     1.10700
C371        C  0.07346123  0.58717760  0.08658566     0.97400
C372        C  0.42783592  0.58723662  0.08660695     0.97500
N373        N  0.46497235  0.54786685  0.42475686    -0.07800
N374        N  0.44199589  0.55377999  0.39924180    -0.63200
N375        N  0.03631001  0.57582182  0.45274855    -0.07200
N376        N  0.05926119  0.60135031  0.44682719    -0.59900
N377        N  0.03632889  0.54788420  0.42480131    -0.08500
N378        N  0.05929718  0.55381909  0.39928586    -0.62800
N379        N  0.46496397  0.57578543  0.45272297    -0.07500
N380        N  0.44198416  0.60127271  0.44682124    -0.60000
Mn381      Mn  0.00065648  0.50064211  0.42343686     1.20200
Mn382      Mn  0.00062915  0.57713441  0.99999802     1.10100
Cl383      Cl  0.00063771  0.50064759  0.99999633    -0.87900
C384        C  0.42781558  0.58716682  0.41339215     0.94400
C385        C  0.07344255  0.58723955  0.41340779     0.94200
N386        N  0.28629534  0.79786789  0.32525623    -0.08100
N387        N  0.30926706  0.80379127  0.35077550    -0.60200
N388        N  0.21494858  0.82578070  0.29724813    -0.07800
N389        N  0.19199157  0.85130262  0.30316371    -0.62300
N390        N  0.21495017  0.79786830  0.32522059    -0.07400
N391        N  0.19200332  0.80382730  0.35076338    -0.60200
N392        N  0.28631554  0.82576520  0.29726864    -0.07100
N393        N  0.30931260  0.85123367  0.30314438    -0.62700
C394        C  0.32346890  0.83714979  0.33659471     0.94100
C395        C  0.17783894  0.83722583  0.33661819     0.93900
N396        N  0.21497372  0.79785711  0.17475669    -0.08300
N397        N  0.19200260  0.80377967  0.14923515    -0.60800
N398        N  0.28632695  0.82578760  0.20276284    -0.06400
N399        N  0.30929216  0.85129974  0.19685795    -0.62000
N400        N  0.28632451  0.79787590  0.17479103    -0.08300
N401        N  0.30927823  0.80382775  0.14925719    -0.61100
N402        N  0.21496474  0.82576904  0.20272823    -0.06000
N403        N  0.19198537  0.85125886  0.19682804    -0.62100
Mn404      Mn  0.25063781  0.82710062  0.25000243     1.18400
C405        C  0.17782060  0.83716360  0.16339023     0.96200
C406        C  0.32344850  0.83721907  0.16340740     0.96800
N407        N  0.21494828  0.70338939  0.32520003    -0.08300
N408        N  0.19198002  0.69745445  0.35071551    -0.65400
N409        N  0.28631316  0.67548813  0.29727836    -0.07100
N410        N  0.30929292  0.65000082  0.30318002    -0.65300
N411        N  0.28630476  0.70340664  0.32524453    -0.07800
N412        N  0.30928130  0.69749361  0.35075954    -0.64900
N413        N  0.21496720  0.67545174  0.29725280    -0.06700
N414        N  0.19201605  0.64992320  0.30317420    -0.65600
Mn415      Mn  0.25062071  0.75063146  0.32656445     1.10700
C416        C  0.17783468  0.66403396  0.33659360     0.97400
C417        C  0.32346155  0.66410679  0.33660909     0.97500
N418        N  0.28633390  0.70339809  0.17480313    -0.07800
N419        N  0.30929244  0.69745723  0.14927365    -0.63200
N420        N  0.21498281  0.67546268  0.20272460    -0.07200
N421        N  0.19201031  0.64996507  0.19681838    -0.59900
N422        N  0.21497036  0.70340182  0.17477801    -0.08500
N423        N  0.19197776  0.69750409  0.14928384    -0.62800
N424        N  0.28632463  0.67546424  0.20275452    -0.07500
N425        N  0.30927223  0.64993279  0.19682427    -0.60000
Mn426      Mn  0.25065364  0.75063170  0.17344927     1.20200
Mn427      Mn  0.25064806  0.67413912  0.25000329     1.10100
Cl428      Cl  0.25063946  0.75062591  0.25000500    -0.87900
C429        C  0.32344134  0.66403698  0.16339447     0.94400
C430        C  0.17781606  0.66409594  0.16341554     0.94200
C431        C  0.11341771  0.59019079  0.14099984    -0.15300
C432        C  0.10030981  0.60666987  0.10605678     0.06800
C433        C  0.11278194  0.64227595  0.09021759    -0.15300
C434        C  0.13785947  0.66108271  0.10900144    -0.15300
C435        C  0.15096738  0.64460366  0.14394453     0.06800
C436        C  0.13849526  0.60899749  0.15978375    -0.15300
H437        H  0.10426575  0.56278006  0.15388502     0.10800
H438        H  0.10311627  0.65568053  0.06334205     0.10800
H439        H  0.14701120  0.68849355  0.09611637     0.10800
H440        H  0.14816089  0.59559295  0.18665930     0.10800
C441        C  0.11304452  0.64201481  0.41007057    -0.15300
C442        C  0.10028601  0.60672028  0.39392823     0.06800
C443        C  0.11312672  0.59050533  0.35869620    -0.15300
C444        C  0.13823274  0.60925874  0.33993082    -0.15300
C445        C  0.15099124  0.64455326  0.35607315     0.06800
C446        C  0.13815054  0.66076822  0.39130518    -0.15300
H447        H  0.10359447  0.65520146  0.43718071     0.10800
H448        H  0.10374216  0.56334369  0.34556806     0.10800
H449        H  0.14768278  0.59607210  0.31282067     0.10800
H450        H  0.14753510  0.68792986  0.40443332     0.10800
C451        C  0.11312451  0.85940648  0.08981728    -0.15300
C452        C  0.10030284  0.89461088  0.10607991     0.06800
C453        C  0.11306673  0.91068070  0.14142483    -0.15300
C454        C  0.13815264  0.89186728  0.16018414    -0.15300
C455        C  0.15097422  0.85666288  0.14392150     0.06800
C456        C  0.13821041  0.84059312  0.10857662    -0.15300
H457        H  0.10373686  0.84633241  0.06261548     0.10800
H458        H  0.10363207  0.93776637  0.15465118     0.10800
H459        H  0.14754026  0.90494072  0.18738599     0.10800
H460        H  0.14764508  0.81350791  0.09535067     0.10800
C461        C  0.38819328  0.59055597  0.14136365    -0.15300
C462        C  0.40099580  0.60672094  0.10608614     0.06800
C463        C  0.38819606  0.64196548  0.08988594    -0.15300
C464        C  0.36308404  0.66071772  0.10863755    -0.15300
C465        C  0.35028142  0.64455268  0.14391507     0.06800
C466        C  0.36308124  0.60930815  0.16011535    -0.15300
H467        H  0.39761332  0.56343625  0.15453848     0.10800
H468        H  0.39761480  0.65510990  0.06273651     0.10800
H469        H  0.35366396  0.68783734  0.09546247     0.10800
H470        H  0.35366264  0.59616378  0.18726462     0.10800
C471        C  0.38776553  0.85985448  0.41061658    -0.15300
C472        C  0.40096176  0.89462672  0.39393476     0.06800
C473        C  0.38858348  0.91024958  0.35815847    -0.15300
C474        C  0.36351172  0.89141925  0.33938467    -0.15300
C475        C  0.35031545  0.85664704  0.35606654     0.06800
C476        C  0.36269375  0.84102410  0.39184281    -0.15300
H477        H  0.39684108  0.84714111  0.43816679     0.10800
H478        H  0.39832175  0.93698400  0.34459270     0.10800
H479        H  0.35443619  0.90413250  0.31183445     0.10800
H480        H  0.35295538  0.81429018  0.40540860     0.10800
C481        C  0.36310881  0.66072894  0.39137537    -0.15300
C482        C  0.35030675  0.64461079  0.35607667     0.06800
C483        C  0.36308586  0.60935846  0.33986257    -0.15300
C484        C  0.38816838  0.59054459  0.35862591    -0.15300
C485        C  0.40097041  0.60666281  0.39392459     0.06800
C486        C  0.38819133  0.64191516  0.41013875    -0.15300
H487        H  0.35370442  0.68784989  0.40456472     0.10800
H488        H  0.35366914  0.59624923  0.31269470     0.10800
H489        H  0.39757266  0.56342351  0.34543677     0.10800
H490        H  0.39760814  0.65502455  0.43730646     0.10800
C491        C  0.13789705  0.89160768  0.33954448    -0.15300
C492        C  0.15099803  0.85671400  0.35609544     0.06800
C493        C  0.13849431  0.84090689  0.39171520    -0.15300
C494        C  0.11338011  0.85966615  0.41045666    -0.15300
C495        C  0.10027907  0.89455975  0.39390571     0.06800
C496        C  0.11278286  0.91036687  0.35828601    -0.15300
H497        H  0.14707669  0.90446651  0.31212170     0.10800
H498        H  0.14815396  0.81406814  0.40516997     0.10800
H499        H  0.10420041  0.84680699  0.43787938     0.10800
H500        H  0.10312294  0.93720593  0.34483085     0.10800
C501        C  0.36352424  0.89144649  0.16061316    -0.15300
C502        C  0.35028910  0.85670573  0.14392369     0.06800
C503        C  0.36265024  0.84105934  0.10814861    -0.15300
C504        C  0.38775298  0.85982703  0.08938820    -0.15300
C505        C  0.40098808  0.89456784  0.10607762     0.06800
C506        C  0.38862699  0.91021419  0.14185276    -0.15300
H507        H  0.35446348  0.90417302  0.18816404     0.10800
H508        H  0.35287850  0.81434857  0.09457680     0.10800
H509        H  0.39681375  0.84710058  0.06183734     0.10800
H510        H  0.39839847  0.93692510  0.15542421     0.10800
N511        N  0.46495271  0.95339769  0.57521027    -0.08100
N512        N  0.44199907  0.94744566  0.60074423    -0.60200
N513        N  0.03631249  0.92550453  0.54727300    -0.07800
N514        N  0.05929176  0.90001463  0.55317328    -0.62300
N515        N  0.03630343  0.95341635  0.57524472    -0.07400
N516        N  0.05927455  0.94749379  0.60076620    -0.60200
N517        N  0.46495024  0.92548607  0.54723845    -0.07100
N518        N  0.44198507  0.89997382  0.55314334    -0.62700
C519        C  0.42782872  0.91405450  0.58659389     0.94100
C520        C  0.07345658  0.91410992  0.58661111     0.93900
N521        N  0.03632692  0.95340518  0.92478064    -0.08300
N522        N  0.05927382  0.94744628  0.89923790    -0.60800
N523        N  0.46496163  0.92550843  0.95273269    -0.06400
N524        N  0.44196467  0.90003979  0.94685685    -0.62000
N525        N  0.46498184  0.95340565  0.92474507    -0.08300
N526        N  0.44201012  0.94748222  0.89922575    -0.61100
N527        N  0.03632865  0.92549294  0.95275325    -0.06000
N528        N  0.05928566  0.89997097  0.94683760    -0.62100
Mn529      Mn  0.50063943  0.92417297  0.49999889     1.18400
C530        C  0.07343829  0.91404781  0.91338313     0.96200
C531        C  0.42780832  0.91412374  0.91340659     0.96800
N532        N  0.03630690  0.54787174  0.57522334    -0.08300
N533        N  0.05929947  0.55376951  0.60071746    -0.64600
N534        N  0.46495259  0.57580935  0.54724686    -0.07100
N535        N  0.44200495  0.60134074  0.55317705    -0.65300
N536        N  0.46494333  0.54787546  0.57519827    -0.07800
N537        N  0.44198479  0.55381641  0.60072774    -0.64900
N538        N  0.03629444  0.57581084  0.54727665    -0.06700
N539        N  0.05926690  0.60130846  0.55318287    -0.65600
Mn540      Mn  0.00062363  0.50064185  0.57655208     1.10700
C541        C  0.07346121  0.58717758  0.58658564     0.97400
C542        C  0.42783588  0.58723669  0.58660694     0.97500
N543        N  0.46497241  0.54786684  0.92475682    -0.07800
N544        N  0.44199592  0.55377999  0.89924175    -0.63200
N545        N  0.03630997  0.57582177  0.95274848    -0.07200
N546        N  0.05926116  0.60135028  0.94682715    -0.59900
N547        N  0.03632887  0.54788418  0.92480122    -0.08500
N548        N  0.05929725  0.55381899  0.89928587    -0.62800
N549        N  0.46496403  0.57578540  0.95272292    -0.07500
N550        N  0.44198424  0.60127271  0.94682128    -0.60000
Mn551      Mn  0.00065645  0.50064210  0.92343686     1.20200
Mn552      Mn  0.00062917  0.57713440  0.49999801     1.10100
Cl553      Cl  0.00063776  0.50064764  0.49999631    -0.87900
C554        C  0.42781560  0.58716674  0.91339223     0.94400
C555        C  0.07344247  0.58723960  0.91340766     0.94200
N556        N  0.28629546  0.79786786  0.82525624    -0.08100
N557        N  0.30926716  0.80379122  0.85077551    -0.60200
N558        N  0.21494860  0.82578075  0.79724812    -0.07800
N559        N  0.19199153  0.85130260  0.80316369    -0.62300
N560        N  0.21495022  0.79786834  0.82522062    -0.07400
N561        N  0.19200333  0.80382725  0.85076336    -0.60200
N562        N  0.28631557  0.82576519  0.79726860    -0.07100
N563        N  0.30931263  0.85123361  0.80314435    -0.62700
C564        C  0.32346899  0.83714971  0.83659466     0.94100
C565        C  0.17783888  0.83722577  0.83661816     0.93900
N566        N  0.21497368  0.79785706  0.67475672    -0.08300
N567        N  0.19200265  0.80377970  0.64923508    -0.60800
N568        N  0.28632701  0.82578748  0.70276288    -0.06400
N569        N  0.30929216  0.85129970  0.69685796    -0.62000
N570        N  0.28632445  0.79787587  0.67479101    -0.08300
N571        N  0.30927816  0.80382780  0.64925714    -0.61100
N572        N  0.21496476  0.82576909  0.70272821    -0.06000
N573        N  0.19198544  0.85125895  0.69682813    -0.62100
Mn574      Mn  0.25063780  0.82710064  0.75000235     1.18400
C575        C  0.17782064  0.83716357  0.66339028     0.96200
C576        C  0.32344848  0.83721907  0.66340735     0.96800
N577        N  0.21494832  0.70338937  0.82520006    -0.08300
N578        N  0.19197999  0.69745454  0.85071549    -0.65400
N579        N  0.28631326  0.67548820  0.79727830    -0.07100
N580        N  0.30929302  0.65000087  0.80318003    -0.65300
N581        N  0.28630482  0.70340670  0.82524451    -0.07800
N582        N  0.30928126  0.69749355  0.85075959    -0.64900
N583        N  0.21496725  0.67545173  0.79725284    -0.06700
N584        N  0.19201605  0.64992326  0.80317410    -0.65600
Mn585      Mn  0.25062075  0.75063148  0.82656447     1.10700
C586        C  0.17783475  0.66403400  0.83659362     0.97400
C587        C  0.32346166  0.66410683  0.83660910     0.97500
N588        N  0.28633382  0.70339803  0.67480311    -0.07800
N589        N  0.30929239  0.69745721  0.64927363    -0.63200
N590        N  0.21498281  0.67546270  0.70272461    -0.07200
N591        N  0.19201029  0.64996518  0.69681839    -0.59900
N592        N  0.21497026  0.70340188  0.67477799    -0.08500
N593        N  0.19197763  0.69750404  0.64928398    -0.62800
N594        N  0.28632457  0.67546426  0.70275453    -0.07500
N595        N  0.30927228  0.64993293  0.69682431    -0.60000
Mn596      Mn  0.25065359  0.75063169  0.67344927     1.20200
Mn597      Mn  0.25064804  0.67413916  0.75000333     1.10100
Cl598      Cl  0.25063946  0.75062591  0.75000500    -0.87900
C599        C  0.32344126  0.66403695  0.66339437     0.94400
C600        C  0.17781589  0.66409598  0.66341568     0.94200
C601        C  0.11341770  0.59019080  0.64099973    -0.15300
C602        C  0.10030980  0.60666989  0.60605672     0.06800
C603        C  0.11278191  0.64227610  0.59021749    -0.15300
C604        C  0.13785948  0.66108286  0.60900149    -0.15300
C605        C  0.15096731  0.64460374  0.64394454     0.06800
C606        C  0.13849525  0.60899751  0.65978374    -0.15300
H607        H  0.10426591  0.56277994  0.65388478     0.10800
H608        H  0.10311628  0.65568061  0.56334208     0.10800
H609        H  0.14701134  0.68849373  0.59611654     0.10800
H610        H  0.14816066  0.59559311  0.68665917     0.10800
C611        C  0.11304442  0.64201481  0.91007058    -0.15300
C612        C  0.10028600  0.60672028  0.89392819     0.06800
C613        C  0.11312679  0.59050537  0.85869609    -0.15300
C614        C  0.13823280  0.60925893  0.83993085    -0.15300
C615        C  0.15099130  0.64455339  0.85607325     0.06800
C616        C  0.13815045  0.66076834  0.89130528    -0.15300
H617        H  0.10359403  0.65520140  0.93718064     0.10800
H618        H  0.10374257  0.56334363  0.84556811     0.10800
H619        H  0.14768313  0.59607214  0.81282078     0.10800
H620        H  0.14753518  0.68792995  0.90443375     0.10800
C621        C  0.11312450  0.85940644  0.58981735    -0.15300
C622        C  0.10030291  0.89461084  0.60607996     0.06800
C623        C  0.11306683  0.91068067  0.64142485    -0.15300
C624        C  0.13815273  0.89186724  0.66018399    -0.15300
C625        C  0.15097428  0.85666278  0.64392142     0.06800
C626        C  0.13821039  0.84059301  0.60857647    -0.15300
H627        H  0.10373673  0.84633235  0.56261565     0.10800
H628        H  0.10363248  0.93776638  0.65465105     0.10800
H629        H  0.14754032  0.90494088  0.68738575     0.10800
H630        H  0.14764475  0.81350776  0.59535032     0.10800
C631        C  0.38819318  0.59055604  0.64136373    -0.15300
C632        C  0.40099576  0.60672118  0.60608607     0.06800
C633        C  0.38819593  0.64196555  0.58988581    -0.15300
C634        C  0.36308395  0.66071767  0.60863751    -0.15300
C635        C  0.35028139  0.64455262  0.64391519     0.06800
C636        C  0.36308119  0.60930821  0.66011538    -0.15300
H637        H  0.39761342  0.56343700  0.65453869     0.10800
H638        H  0.39761440  0.65510992  0.56273590     0.10800
H639        H  0.35366381  0.68783724  0.59546260     0.10800
H640        H  0.35366276  0.59616371  0.68726528     0.10800
C641        C  0.38776558  0.85985441  0.91061655    -0.15300
C642        C  0.40096181  0.89462651  0.89393472     0.06800
C643        C  0.38858344  0.91024941  0.85815846    -0.15300
C644        C  0.36351169  0.89141904  0.83938468    -0.15300
C645        C  0.35031546  0.85664698  0.85606656     0.06800
C646        C  0.36269384  0.84102408  0.89184278    -0.15300
H647        H  0.39684111  0.84714098  0.93816676     0.10800
H648        H  0.39832171  0.93698346  0.84459266     0.10800
H649        H  0.35443599  0.90413234  0.81183451     0.10800
H650        H  0.35295544  0.81429024  0.90540873     0.10800
C651        C  0.36310888  0.66072899  0.89137551    -0.15300
C652        C  0.35030681  0.64461078  0.85607678     0.06800
C653        C  0.36308586  0.60935840  0.83986263    -0.15300
C654        C  0.38816837  0.59054459  0.85862596    -0.15300
C655        C  0.40097049  0.60666283  0.89392460     0.06800
C656        C  0.38819137  0.64191509  0.91013875    -0.15300
H657        H  0.35370460  0.68785007  0.90456469     0.10800
H658        H  0.35366901  0.59624903  0.81269491     0.10800
H659        H  0.39757276  0.56342360  0.84543664     0.10800
H660        H  0.39760844  0.65502456  0.93730654     0.10800
C661        C  0.13789705  0.89160762  0.83954447    -0.15300
C662        C  0.15099806  0.85671404  0.85609554     0.06800
C663        C  0.13849423  0.84090693  0.89171535    -0.15300
C664        C  0.11338009  0.85966606  0.91045683    -0.15300
C665        C  0.10027913  0.89455961  0.89390577     0.06800
C666        C  0.11278290  0.91036678  0.85828598    -0.15300
H667        H  0.14707691  0.90446677  0.81212165     0.10800
H668        H  0.14815420  0.81406827  0.90517059     0.10800
H669        H  0.10420020  0.84680691  0.93787958     0.10800
H670        H  0.10312288  0.93720550  0.84483101     0.10800
C671        C  0.36352418  0.89144658  0.66061310    -0.15300
C672        C  0.35028914  0.85670577  0.64392370     0.06800
C673        C  0.36265027  0.84105929  0.60814855    -0.15300
C674        C  0.38775305  0.85982703  0.58938819    -0.15300
C675        C  0.40098811  0.89456781  0.60607760     0.06800
C676        C  0.38862695  0.91021431  0.64185274    -0.15300
H677        H  0.35446306  0.90417322  0.68816394     0.10800
H678        H  0.35287877  0.81434835  0.59457726     0.10800
H679        H  0.39681414  0.84710029  0.56183737     0.10800
H680        H  0.39839845  0.93692524  0.65542412     0.10800
N681        N  0.96495269  0.45339770  0.07521037    -0.08100
N682        N  0.94199900  0.44744572  0.10074428    -0.60200
N683        N  0.53631250  0.42550456  0.04727304    -0.07800
N684        N  0.55929180  0.40001467  0.05317333    -0.62300
N685        N  0.53630348  0.45341644  0.07524464    -0.07400
N686        N  0.55927454  0.44749384  0.10076628    -0.60200
N687        N  0.96495027  0.42548604  0.04723856    -0.07100
N688        N  0.94198506  0.39997387  0.05314342    -0.62700
C689        C  0.92782874  0.41405446  0.08659403     0.94100
C690        C  0.57345666  0.41411009  0.08661105     0.93900
N691        N  0.53632702  0.45340528  0.42478073    -0.08300
N692        N  0.55927386  0.44744628  0.39923793    -0.60800
N693        N  0.96496168  0.42550833  0.45273267    -0.06400
N694        N  0.94196468  0.40003983  0.44685685    -0.62000
N695        N  0.96498183  0.45340565  0.42474504    -0.08300
N696        N  0.94201009  0.44748228  0.39922581    -0.61100
N697        N  0.53632864  0.42549287  0.45275321    -0.06000
N698        N  0.55928566  0.39997097  0.44683756    -0.62100
Mn699      Mn  0.00063942  0.42417300  0.99999885     1.18400
C700        C  0.57343833  0.41404781  0.41338314     0.96200
C701        C  0.92780830  0.41412372  0.41340657     0.96800
N702        N  0.53630692  0.04787164  0.07522332    -0.08300
N703        N  0.55929950  0.05376953  0.10071742    -0.64600
N704        N  0.96495266  0.07580940  0.04724684    -0.07100
N705        N  0.94200497  0.10134068  0.05317706    -0.65300
N706        N  0.96494340  0.04787551  0.07519825    -0.07800
N707        N  0.94198484  0.05381638  0.10072767    -0.64900
N708        N  0.53629442  0.07581080  0.04727674    -0.06700
N709        N  0.55926695  0.10130840  0.05318282    -0.65600
Mn710      Mn  0.50062363  0.00064185  0.07655207     1.10700
C711        C  0.57346121  0.08717760  0.08658563     0.97400
C712        C  0.92783594  0.08723667  0.08660696     0.97500
N713        N  0.96497250  0.04786697  0.42475677    -0.07800
N714        N  0.94199595  0.05377991  0.39924176    -0.63200
N715        N  0.53630992  0.07582180  0.45274852    -0.07200
N716        N  0.55926111  0.10135035  0.44682714    -0.59900
N717        N  0.53632889  0.04788420  0.42480139    -0.08500
N718        N  0.55929726  0.05381908  0.39928595    -0.62800
N719        N  0.96496396  0.07578537  0.45272301    -0.07500
N720        N  0.94198423  0.10127274  0.44682117    -0.60000
Mn721      Mn  0.50065647  0.00064213  0.42343688     1.20200
Mn722      Mn  0.50062916  0.07713442  0.99999803     1.10100
Cl723      Cl  0.50063776  0.00064765  0.99999636    -0.87900
C724        C  0.92781559  0.08716669  0.41339215     0.94400
C725        C  0.57344246  0.08723963  0.41340773     0.94200
N726        N  0.78629545  0.29786788  0.32525622    -0.08100
N727        N  0.80926712  0.30379129  0.35077557    -0.60200
N728        N  0.71494858  0.32578062  0.29724808    -0.07800
N729        N  0.69199156  0.35130260  0.30316366    -0.62300
N730        N  0.71495026  0.29786837  0.32522066    -0.07400
N731        N  0.69200332  0.30382728  0.35076335    -0.60200
N732        N  0.78631561  0.32576512  0.29726860    -0.07100
N733        N  0.80931264  0.35123366  0.30314436    -0.62700
C734        C  0.82346898  0.33714970  0.33659464     0.94100
C735        C  0.67783888  0.33722576  0.33661811     0.93900
N736        N  0.71497374  0.29785718  0.17475665    -0.08300
N737        N  0.69200262  0.30377974  0.14923510    -0.60800
N738        N  0.78632703  0.32578745  0.20276291    -0.06400
N739        N  0.80929213  0.35129975  0.19685786    -0.62000
N740        N  0.78632443  0.29787590  0.17479099    -0.08300
N741        N  0.80927814  0.30382779  0.14925710    -0.61100
N742        N  0.71496477  0.32576907  0.20272825    -0.06000
N743        N  0.69198542  0.35125891  0.19682807    -0.62100
Mn744      Mn  0.75063781  0.32710059  0.25000245     1.18400
C745        C  0.67782066  0.33716366  0.16339021     0.96200
C746        C  0.82344852  0.33721897  0.16340738     0.96800
N747        N  0.71494834  0.20338933  0.32520005    -0.08300
N748        N  0.69197996  0.19745446  0.35071546    -0.65400
N749        N  0.78631321  0.17548814  0.29727833    -0.07100
N750        N  0.80929297  0.15000085  0.30318008    -0.65300
N751        N  0.78630484  0.20340671  0.32524449    -0.07800
N752        N  0.80928126  0.19749366  0.35075967    -0.64900
N753        N  0.71496727  0.17545178  0.29725282    -0.06700
N754        N  0.69201612  0.14992324  0.30317421    -0.65600
Mn755      Mn  0.75062076  0.25063144  0.32656444     1.10700
C756        C  0.67783472  0.16403399  0.33659359     0.97400
C757        C  0.82346164  0.16410691  0.33660915     0.97500
N758        N  0.78633389  0.20339811  0.17480314    -0.07800
N759        N  0.80929241  0.19745723  0.14927365    -0.63200
N760        N  0.71498283  0.17546269  0.20272453    -0.07200
N761        N  0.69201033  0.14996506  0.19681839    -0.59900
N762        N  0.71497024  0.20340193  0.17477802    -0.08500
N763        N  0.69197770  0.19750402  0.14928385    -0.62800
N764        N  0.78632454  0.17546418  0.20275447    -0.07500
N765        N  0.80927227  0.14993289  0.19682438    -0.60000
Mn766      Mn  0.75065359  0.25063172  0.17344926     1.20200
Mn767      Mn  0.75064804  0.17413913  0.25000327     1.10100
Cl768      Cl  0.75063945  0.25062591  0.25000499    -0.87900
C769        C  0.82344123  0.16403685  0.16339437     0.94400
C770        C  0.67781594  0.16409601  0.16341569     0.94200
C771        C  0.61341770  0.09019091  0.14099965    -0.15300
C772        C  0.60030981  0.10666999  0.10605660     0.06800
C773        C  0.61278187  0.14227592  0.09021755    -0.15300
C774        C  0.63785944  0.16108277  0.10900150    -0.15300
C775        C  0.65096734  0.14460364  0.14394460     0.06800
C776        C  0.63849527  0.10899766  0.15978365    -0.15300
H777        H  0.60426586  0.06278069  0.15388464     0.10800
H778        H  0.60311625  0.15568050  0.06334195     0.10800
H779        H  0.64701119  0.18849304  0.09611656     0.10800
H780        H  0.64816070  0.09559310  0.18665917     0.10800
C781        C  0.61304447  0.14201494  0.41007059    -0.15300
C782        C  0.60028597  0.10672039  0.39392829     0.06800
C783        C  0.61312671  0.09050530  0.35869612    -0.15300
C784        C  0.63823276  0.10925876  0.33993084    -0.15300
C785        C  0.65099131  0.14455325  0.35607313     0.06800
C786        C  0.63815055  0.16076839  0.39130525    -0.15300
H787        H  0.60359404  0.15520200  0.43718071     0.10800
H788        H  0.60374236  0.06334366  0.34556826     0.10800
H789        H  0.64768320  0.09607153  0.31282078     0.10800
H790        H  0.64753519  0.18792996  0.40443329     0.10800
C791        C  0.61312448  0.35940637  0.08981736    -0.15300
C792        C  0.60030293  0.39461078  0.10607995     0.06800
C793        C  0.61306682  0.41068057  0.14142486    -0.15300
C794        C  0.63815271  0.39186717  0.16018403    -0.15300
C795        C  0.65097428  0.35666279  0.14392148     0.06800
C796        C  0.63821041  0.34059300  0.10857659    -0.15300
H797        H  0.60373692  0.34633267  0.06261558     0.10800
H798        H  0.60363243  0.43776581  0.15465100     0.10800
H799        H  0.64754046  0.40494125  0.18738573     0.10800
H800        H  0.64764470  0.31350731  0.09535072     0.10800
C801        C  0.88819326  0.09055590  0.14136367    -0.15300
C802        C  0.90099584  0.10672104  0.10608617     0.06800
C803        C  0.88819598  0.14196544  0.08988593    -0.15300
C804        C  0.86308403  0.16071768  0.10863761    -0.15300
C805        C  0.85028140  0.14455249  0.14391517     0.06800
C806        C  0.86308128  0.10930804  0.16011543    -0.15300
H807        H  0.89761343  0.06343643  0.15453864     0.10800
H808        H  0.89761458  0.15511007  0.06273645     0.10800
H809        H  0.85366425  0.18783726  0.09546283     0.10800
H810        H  0.85366259  0.09616326  0.18726470     0.10800
C811        C  0.88776547  0.35985432  0.41061670    -0.15300
C812        C  0.90096175  0.39462648  0.39393477     0.06800
C813        C  0.88858341  0.41024946  0.35815849    -0.15300
C814        C  0.86351167  0.39141908  0.33938475    -0.15300
C815        C  0.85031540  0.35664693  0.35606663     0.06800
C816        C  0.86269376  0.34102403  0.39184291    -0.15300
H817        H  0.89684100  0.34714100  0.43816694     0.10800
H818        H  0.89832184  0.43698338  0.34459268     0.10800
H819        H  0.85443586  0.40413268  0.31183457     0.10800
H820        H  0.85295546  0.31428966  0.40540885     0.10800
C821        C  0.86310885  0.16072902  0.39137554    -0.15300
C822        C  0.85030680  0.14461081  0.35607685     0.06800
C823        C  0.86308592  0.10935849  0.33986264    -0.15300
C824        C  0.88816840  0.09054453  0.35862585    -0.15300
C825        C  0.90097050  0.10666281  0.39392446     0.06800
C826        C  0.88819137  0.14191507  0.41013882    -0.15300
H827        H  0.85370447  0.18784999  0.40456479     0.10800
H828        H  0.85366926  0.09624953  0.31269471     0.10800
H829        H  0.89757270  0.06342361  0.34543640     0.10800
H830        H  0.89760841  0.15502428  0.43730654     0.10800
C831        C  0.63789705  0.39160754  0.33954453    -0.15300
C832        C  0.65099806  0.35671394  0.35609558     0.06800
C833        C  0.63849425  0.34090677  0.39171535    -0.15300
C834        C  0.61338011  0.35966597  0.41045678    -0.15300
C835        C  0.60027908  0.39455957  0.39390571     0.06800
C836        C  0.61278288  0.41036676  0.35828598    -0.15300
H837        H  0.64707715  0.40446670  0.31212187     0.10800
H838        H  0.64815401  0.31406765  0.40517023     0.10800
H839        H  0.60420025  0.34680687  0.43787962     0.10800
H840        H  0.60312267  0.43720542  0.34483074     0.10800
C841        C  0.86352418  0.39144648  0.16061310    -0.15300
C842        C  0.85028914  0.35670563  0.14392367     0.06800
C843        C  0.86265028  0.34105926  0.10814852    -0.15300
C844        C  0.88775305  0.35982701  0.08938819    -0.15300
C845        C  0.90098813  0.39456775  0.10607770     0.06800
C846        C  0.88862695  0.41021425  0.14185278    -0.15300
H847        H  0.85446317  0.40417302  0.18816401     0.10800
H848        H  0.85287865  0.31434830  0.09457692     0.10800
H849        H  0.89681428  0.34710035  0.06183749     0.10800
H850        H  0.89839849  0.43692510  0.15542425     0.10800
N851        N  0.96495276  0.45339767  0.57521027    -0.08100
N852        N  0.94199902  0.44744573  0.60074410    -0.60200
N853        N  0.53631252  0.42550452  0.54727305    -0.07800
N854        N  0.55929181  0.40001465  0.55317325    -0.62300
N855        N  0.53630349  0.45341636  0.57524475    -0.07400
N856        N  0.55927463  0.44749385  0.60076621    -0.60200
N857        N  0.96495024  0.42548605  0.54723841    -0.07100
N858        N  0.94198507  0.39997383  0.55314327    -0.62700
C859        C  0.92782872  0.41405445  0.58659386     0.94100
C860        C  0.57345656  0.41410990  0.58661113     0.93900
N861        N  0.53632699  0.45340527  0.92478070    -0.08300
N862        N  0.55927386  0.44744635  0.89923795    -0.60800
N863        N  0.96496167  0.42550836  0.95273262    -0.06400
N864        N  0.94196459  0.40003993  0.94685690    -0.62000
N865        N  0.96498176  0.45340573  0.92474509    -0.08300
N866        N  0.94201010  0.44748223  0.89922576    -0.61100
N867        N  0.53632868  0.42549288  0.95275317    -0.06000
N868        N  0.55928566  0.39997088  0.94683756    -0.62100
Mn869      Mn  0.00063939  0.42417292  0.49999895     1.18400
C870        C  0.57343833  0.41404784  0.91338321     0.96200
C871        C  0.92780823  0.41412381  0.91340662     0.96800
N872        N  0.53630685  0.04787171  0.57522339    -0.08300
N873        N  0.55929949  0.05376957  0.60071742    -0.64600
N874        N  0.96495266  0.07580946  0.54724690    -0.07100
N875        N  0.94200492  0.10134071  0.55317700    -0.65300
N876        N  0.96494325  0.04787541  0.57519817    -0.07800
N877        N  0.94198475  0.05381631  0.60072765    -0.64900
N878        N  0.53629437  0.07581075  0.54727668    -0.06700
N879        N  0.55926685  0.10130840  0.55318283    -0.65600
Mn880      Mn  0.50062358  0.00064184  0.57655209     1.10700
C881        C  0.57346126  0.08717755  0.58658556     0.97400
C882        C  0.92783594  0.08723674  0.58660698     0.97500
N883        N  0.96497238  0.04786680  0.92475688    -0.07800
N884        N  0.94199595  0.05377996  0.89924173    -0.63200
N885        N  0.53631001  0.07582178  0.95274852    -0.07200
N886        N  0.55926109  0.10135038  0.94682706    -0.59900
N887        N  0.53632892  0.04788420  0.92480124    -0.08500
N888        N  0.55929727  0.05381908  0.89928589    -0.62800
N889        N  0.96496407  0.07578546  0.95272286    -0.07500
N890        N  0.94198423  0.10127278  0.94682128    -0.60000
Mn891      Mn  0.50065653  0.00064211  0.92343689     1.20200
Mn892      Mn  0.50062913  0.07713440  0.49999802     1.10100
Cl893      Cl  0.50063772  0.00064765  0.49999632    -0.87900
C894        C  0.92781560  0.08716674  0.91339225     0.94400
C895        C  0.57344253  0.08723959  0.91340774     0.94200
N896        N  0.78629535  0.29786792  0.82525626    -0.08100
N897        N  0.80926712  0.30379122  0.85077551    -0.60200
N898        N  0.71494856  0.32578067  0.79724813    -0.07800
N899        N  0.69199150  0.35130261  0.80316364    -0.62300
N900        N  0.71495020  0.29786831  0.82522064    -0.07400
N901        N  0.69200332  0.30382726  0.85076337    -0.60200
N902        N  0.78631559  0.32576509  0.79726856    -0.07100
N903        N  0.80931255  0.35123369  0.80314444    -0.62700
C904        C  0.82346895  0.33714967  0.83659464     0.94100
C905        C  0.67783892  0.33722578  0.83661814     0.93900
N906        N  0.71497371  0.29785713  0.67475673    -0.08300
N907        N  0.69200262  0.30377970  0.64923518    -0.60800
N908        N  0.78632696  0.32578752  0.70276282    -0.06400
N909        N  0.80929216  0.35129975  0.69685799    -0.62000
N910        N  0.78632450  0.29787584  0.67479106    -0.08300
N911        N  0.80927815  0.30382783  0.64925713    -0.61100
N912        N  0.71496474  0.32576908  0.70272825    -0.06000
N913        N  0.69198540  0.35125897  0.69682813    -0.62100
Mn914      Mn  0.75063780  0.32710059  0.75000236     1.18400
C915        C  0.67782065  0.33716363  0.66339030     0.96200
C916        C  0.82344849  0.33721903  0.66340746     0.96800
N917        N  0.71494822  0.20338944  0.82519994    -0.08300
N918        N  0.69197998  0.19745448  0.85071545    -0.65400
N919        N  0.78631322  0.17548811  0.79727831    -0.07100
N920        N  0.80929301  0.15000087  0.80318005    -0.65300
N921        N  0.78630469  0.20340660  0.82524452    -0.07800
N922        N  0.80928123  0.19749370  0.85075954    -0.64900
N923        N  0.71496726  0.17545166  0.79725281    -0.06700
N924        N  0.69201613  0.14992316  0.80317417    -0.65600
Mn925      Mn  0.75062072  0.25063142  0.82656445     1.10700
C926        C  0.67783476  0.16403392  0.83659359     0.97400
C927        C  0.82346154  0.16410687  0.83660917     0.97500
N928        N  0.78633388  0.20339807  0.67480310    -0.07800
N929        N  0.80929245  0.19745719  0.64927370    -0.63200
N930        N  0.71498280  0.17546274  0.70272462    -0.07200
N931        N  0.69201030  0.14996511  0.69681840    -0.59900
N932        N  0.71497039  0.20340183  0.67477796    -0.08500
N933        N  0.69197769  0.19750408  0.64928397    -0.62800
N934        N  0.78632461  0.17546416  0.70275449    -0.07500
N935        N  0.80927229  0.14993288  0.69682430    -0.60000
Mn936      Mn  0.75065363  0.25063170  0.67344926     1.20200
Mn937      Mn  0.75064810  0.17413910  0.75000331     1.10100
Cl938      Cl  0.75063947  0.25062590  0.75000499    -0.87900
C939        C  0.82344134  0.16403690  0.66339443     0.94400
C940        C  0.67781598  0.16409594  0.66341563     0.94200
C941        C  0.61341781  0.09019080  0.64099977    -0.15300
C942        C  0.60030977  0.10667005  0.60605677     0.06800
C943        C  0.61278192  0.14227593  0.59021756    -0.15300
C944        C  0.63785942  0.16108270  0.60900158    -0.15300
C945        C  0.65096738  0.14460351  0.64394461     0.06800
C946        C  0.63849532  0.10899756  0.65978380    -0.15300
H947        H  0.60426592  0.06278055  0.65388487     0.10800
H948        H  0.60311620  0.15568074  0.56334219     0.10800
H949        H  0.64701124  0.18849302  0.59611665     0.10800
H950        H  0.64816097  0.09559288  0.68665929     0.10800
C951        C  0.61304454  0.14201487  0.91007049    -0.15300
C952        C  0.60028593  0.10672034  0.89392819     0.06800
C953        C  0.61312664  0.09050526  0.85869610    -0.15300
C954        C  0.63823271  0.10925866  0.83993075    -0.15300
C955        C  0.65099132  0.14455318  0.85607308     0.06800
C956        C  0.63815060  0.16076826  0.89130515    -0.15300
H957        H  0.60359440  0.15520188  0.93718064     0.10800
H958        H  0.60374198  0.06334372  0.84556800     0.10800
H959        H  0.64768287  0.09607166  0.81282060     0.10800
H960        H  0.64753526  0.18792979  0.90443325     0.10800
C961        C  0.61312455  0.35940637  0.58981722    -0.15300
C962        C  0.60030294  0.39461082  0.60607990     0.06800
C963        C  0.61306681  0.41068059  0.64142481    -0.15300
C964        C  0.63815269  0.39186716  0.66018405    -0.15300
C965        C  0.65097435  0.35666273  0.64392140     0.06800
C966        C  0.63821045  0.34059292  0.60857649    -0.15300
H967        H  0.60373695  0.34633288  0.56261538     0.10800
H968        H  0.60363212  0.43776582  0.65465112     0.10800
H969        H  0.64754041  0.40494114  0.68738584     0.10800
H970        H  0.64764513  0.31350725  0.59535017     0.10800
C971        C  0.88819323  0.09055586  0.64136376    -0.15300
C972        C  0.90099574  0.10672107  0.60608605     0.06800
C973        C  0.88819589  0.14196556  0.58988588    -0.15300
C974        C  0.86308395  0.16071764  0.60863767    -0.15300
C975        C  0.85028141  0.14455243  0.64391533     0.06800
C976        C  0.86308127  0.10930799  0.66011555    -0.15300
H977        H  0.89761340  0.06343635  0.65453843     0.10800
H978        H  0.89761421  0.15511004  0.56273592     0.10800
H979        H  0.85366377  0.18783709  0.59546284     0.10800
H980        H  0.85366266  0.09616334  0.68726545     0.10800
C981        C  0.88776548  0.35985435  0.91061662    -0.15300
C982        C  0.90096172  0.39462657  0.89393476     0.06800
C983        C  0.88858343  0.41024949  0.85815847    -0.15300
C984        C  0.86351165  0.39141908  0.83938472    -0.15300
C985        C  0.85031542  0.35664684  0.85606656     0.06800
C986        C  0.86269372  0.34102399  0.89184283    -0.15300
H987        H  0.89684101  0.34714110  0.93816685     0.10800
H988        H  0.89832178  0.43698340  0.84459265     0.10800
H989        H  0.85443609  0.40413243  0.81183451     0.10800
H990        H  0.85295544  0.31428957  0.90540860     0.10800
C991        C  0.86310878  0.16072900  0.89137546    -0.15300
C992        C  0.85030671  0.14461081  0.85607680     0.06800
C993        C  0.86308586  0.10935849  0.83986250    -0.15300
C994        C  0.88816842  0.09054455  0.85862587    -0.15300
C995        C  0.90097041  0.10666277  0.89392456     0.06800
C996        C  0.88819127  0.14191506  0.91013873    -0.15300
H997        H  0.85370447  0.18784987  0.90456495     0.10800
H998        H  0.85366917  0.09624951  0.81269468     0.10800
H999        H  0.89757280  0.06342360  0.84543667     0.10800
H1000       H  0.89760789  0.15502405  0.93730664     0.10800
C1001       C  0.63789710  0.39160738  0.83954467    -0.15300
C1002       C  0.65099809  0.35671375  0.85609558     0.06800
C1003       C  0.63849435  0.34090665  0.89171533    -0.15300
C1004       C  0.61338016  0.35966586  0.91045685    -0.15300
C1005       C  0.60027914  0.39455953  0.89390587     0.06800
C1006       C  0.61278291  0.41036663  0.85828613    -0.15300
H1007       H  0.64707675  0.40446640  0.81212188     0.10800
H1008       H  0.64815421  0.31406751  0.90517037     0.10800
H1009       H  0.60420046  0.34680691  0.93787957     0.10800
H1010       H  0.60312321  0.43720530  0.84483124     0.10800
C1011       C  0.86352419  0.39144640  0.66061310    -0.15300
C1012       C  0.85028912  0.35670566  0.64392378     0.06800
C1013       C  0.86265023  0.34105927  0.60814862    -0.15300
C1014       C  0.88775299  0.35982692  0.58938815    -0.15300
C1015       C  0.90098807  0.39456762  0.60607750     0.06800
C1016       C  0.88862694  0.41021403  0.64185262    -0.15300
H1017       H  0.85446356  0.40417311  0.68816402     0.10800
H1018       H  0.85287875  0.31434839  0.59457720     0.10800
H1019       H  0.89681380  0.34710036  0.56183728     0.10800
H1020       H  0.89839848  0.43692446  0.65542403     0.10800
N1021       N  0.96495277  0.95339772  0.07521035    -0.08100
N1022       N  0.94199907  0.94744575  0.10074425    -0.60200
N1023       N  0.53631252  0.92550450  0.04727307    -0.07800
N1024       N  0.55929184  0.90001460  0.05317325    -0.62300
N1025       N  0.53630351  0.95341636  0.07524469    -0.07400
N1026       N  0.55927460  0.94749378  0.10076625    -0.60200
N1027       N  0.96495023  0.92548611  0.04723850    -0.07100
N1028       N  0.94198510  0.89997383  0.05314342    -0.62700
C1029       C  0.92782872  0.91405455  0.08659391     0.94100
C1030       C  0.57345659  0.91410994  0.08661106     0.93900
N1031       N  0.53632697  0.95340521  0.42478068    -0.08300
N1032       N  0.55927393  0.94744641  0.39923803    -0.60800
N1033       N  0.96496160  0.92550845  0.45273272    -0.06400
N1034       N  0.94196463  0.90003985  0.44685685    -0.62000
N1035       N  0.96498183  0.95340563  0.42474502    -0.08300
N1036       N  0.94201005  0.94748232  0.39922579    -0.61100
N1037       N  0.53632870  0.92549290  0.45275320    -0.06000
N1038       N  0.55928571  0.89997089  0.44683758    -0.62100
Mn1039     Mn  0.00063937  0.92417298  0.99999889     1.18400
C1040       C  0.57343832  0.91404784  0.41338320     0.96200
C1041       C  0.92780823  0.91412387  0.41340666     0.96800
N1042       N  0.53630687  0.54787168  0.07522336    -0.08300
N1043       N  0.55929952  0.55376955  0.10071738    -0.64600
N1044       N  0.96495262  0.57580936  0.04724684    -0.07100
N1045       N  0.94200494  0.60134072  0.05317711    -0.65300
N1046       N  0.96494332  0.54787549  0.07519819    -0.07800
N1047       N  0.94198482  0.55381635  0.10072771    -0.64900
N1048       N  0.53629437  0.57581077  0.04727671    -0.06700
N1049       N  0.55926693  0.60130826  0.05318280    -0.65600
Mn1050     Mn  0.50062358  0.50064185  0.07655205     1.10700
C1051       C  0.57346123  0.58717759  0.08658565     0.97400
C1052       C  0.92783593  0.58723662  0.08660696     0.97500
N1053       N  0.96497238  0.54786685  0.42475686    -0.07800
N1054       N  0.94199590  0.55377999  0.39924183    -0.63200
N1055       N  0.53630993  0.57582183  0.45274853    -0.07200
N1056       N  0.55926113  0.60135030  0.44682720    -0.59900
N1057       N  0.53632885  0.54788418  0.42480131    -0.08500
N1058       N  0.55929717  0.55381906  0.39928590    -0.62800
N1059       N  0.96496404  0.57578545  0.45272295    -0.07500
N1060       N  0.94198422  0.60127271  0.44682125    -0.60000
Mn1061     Mn  0.50065648  0.50064211  0.42343686     1.20200
Mn1062     Mn  0.50062914  0.57713441  0.99999803     1.10100
Cl1063     Cl  0.50063771  0.50064759  0.99999634    -0.87900
C1064       C  0.92781561  0.58716682  0.41339218     0.94400
C1065       C  0.57344253  0.58723953  0.41340782     0.94200
N1066       N  0.78629535  0.79786789  0.32525623    -0.08100
N1067       N  0.80926707  0.80379127  0.35077550    -0.60200
N1068       N  0.71494859  0.82578070  0.29724813    -0.07800
N1069       N  0.69199158  0.85130262  0.30316371    -0.62300
N1070       N  0.71495018  0.79786830  0.32522059    -0.07400
N1071       N  0.69200333  0.80382730  0.35076339    -0.60200
N1072       N  0.78631555  0.82576520  0.29726864    -0.07100
N1073       N  0.80931261  0.85123367  0.30314438    -0.62700
C1074       C  0.82346891  0.83714979  0.33659471     0.94100
C1075       C  0.67783895  0.83722583  0.33661819     0.93900
N1076       N  0.71497373  0.79785711  0.17475669    -0.08300
N1077       N  0.69200261  0.80377967  0.14923515    -0.60800
N1078       N  0.78632696  0.82578759  0.20276284    -0.06400
N1079       N  0.80929217  0.85129974  0.19685795    -0.62000
N1080       N  0.78632452  0.79787590  0.17479103    -0.08300
N1081       N  0.80927824  0.80382775  0.14925719    -0.61100
N1082       N  0.71496475  0.82576904  0.20272823    -0.06000
N1083       N  0.69198538  0.85125886  0.19682804    -0.62100
Mn1084     Mn  0.75063782  0.82710062  0.25000243     1.18400
C1085       C  0.67782061  0.83716360  0.16339023     0.96200
C1086       C  0.82344851  0.83721907  0.16340740     0.96800
N1087       N  0.71494828  0.70338939  0.32520004    -0.08300
N1088       N  0.69198002  0.69745445  0.35071553    -0.65400
N1089       N  0.78631317  0.67548813  0.29727835    -0.07100
N1090       N  0.80929290  0.65000079  0.30318008    -0.65300
N1091       N  0.78630477  0.70340665  0.32524453    -0.07800
N1092       N  0.80928128  0.69749355  0.35075956    -0.64900
N1093       N  0.71496721  0.67545173  0.29725282    -0.06700
N1094       N  0.69201605  0.64992320  0.30317422    -0.65600
Mn1095     Mn  0.75062071  0.75063147  0.32656444     1.10700
C1096       C  0.67783468  0.66403396  0.33659363     0.97400
C1097       C  0.82346160  0.66410679  0.33660909     0.97500
N1098       N  0.78633390  0.70339808  0.17480311    -0.07800
N1099       N  0.80929247  0.69745720  0.14927366    -0.63200
N1100       N  0.71498284  0.67546266  0.20272457    -0.07200
N1101       N  0.69201028  0.64996512  0.19681843    -0.59900
N1102       N  0.71497032  0.70340183  0.17477802    -0.08500
N1103       N  0.69197774  0.69750407  0.14928383    -0.62800
N1104       N  0.78632462  0.67546425  0.20275452    -0.07500
N1105       N  0.80927222  0.64993279  0.19682431    -0.60000
Mn1106     Mn  0.75065363  0.75063169  0.17344926     1.20200
Mn1107     Mn  0.75064807  0.67413914  0.25000329     1.10100
Cl1108     Cl  0.75063946  0.75062591  0.25000500    -0.87900
C1109       C  0.82344134  0.66403695  0.16339451     0.94400
C1110       C  0.67781605  0.66409596  0.16341557     0.94200
C1111       C  0.61341770  0.59019078  0.14099983    -0.15300
C1112       C  0.60030980  0.60666986  0.10605677     0.06800
C1113       C  0.61278193  0.64227594  0.09021758    -0.15300
C1114       C  0.63785944  0.66108275  0.10900147    -0.15300
C1115       C  0.65096741  0.64460366  0.14394452     0.06800
C1116       C  0.63849524  0.60899754  0.15978378    -0.15300
H1117       H  0.60426577  0.56278001  0.15388495     0.10800
H1118       H  0.60311629  0.65568046  0.06334199     0.10800
H1119       H  0.64701121  0.68849356  0.09611633     0.10800
H1120       H  0.64816091  0.59559293  0.18665930     0.10800
C1121       C  0.61304446  0.64201484  0.41007058    -0.15300
C1122       C  0.60028595  0.60672032  0.39392825     0.06800
C1123       C  0.61312672  0.59050532  0.35869622    -0.15300
C1124       C  0.63823272  0.60925874  0.33993086    -0.15300
C1125       C  0.65099122  0.64455328  0.35607321     0.06800
C1126       C  0.63815047  0.66076827  0.39130525    -0.15300
H1127       H  0.60359411  0.65520172  0.43718064     0.10800
H1128       H  0.60374219  0.56334363  0.34556811     0.10800
H1129       H  0.64768280  0.59607211  0.31282071     0.10800
H1130       H  0.64753504  0.68792992  0.40443343     0.10800
C1131       C  0.61312452  0.85940648  0.08981728    -0.15300
C1132       C  0.60030285  0.89461088  0.10607991     0.06800
C1133       C  0.61306674  0.91068070  0.14142483    -0.15300
C1134       C  0.63815265  0.89186728  0.16018414    -0.15300
C1135       C  0.65097423  0.85666288  0.14392150     0.06800
C1136       C  0.63821041  0.84059312  0.10857662    -0.15300
H1137       H  0.60373687  0.84633241  0.06261548     0.10800
H1138       H  0.60363208  0.93776637  0.15465118     0.10800
H1139       H  0.64754027  0.90494072  0.18738599     0.10800
H1140       H  0.64764509  0.81350791  0.09535067     0.10800
C1141       C  0.88819331  0.59055588  0.14136372    -0.15300
C1142       C  0.90099578  0.60672083  0.10608616     0.06800
C1143       C  0.88819603  0.64196530  0.08988599    -0.15300
C1144       C  0.86308397  0.66071756  0.10863764    -0.15300
C1145       C  0.85028140  0.64455249  0.14391519     0.06800
C1146       C  0.86308124  0.60930805  0.16011547    -0.15300
H1147       H  0.89761340  0.56343625  0.15453856     0.10800
H1148       H  0.89761443  0.65510958  0.06273647     0.10800
H1149       H  0.85366385  0.68783663  0.09546255     0.10800
H1150       H  0.85366271  0.59616369  0.18726477     0.10800
C1151       C  0.88776553  0.85985446  0.41061658    -0.15300
C1152       C  0.90096176  0.89462670  0.39393475     0.06800
C1153       C  0.88858348  0.91024957  0.35815847    -0.15300
C1154       C  0.86351173  0.89141925  0.33938466    -0.15300
C1155       C  0.85031546  0.85664704  0.35606654     0.06800
C1156       C  0.86269375  0.84102409  0.39184281    -0.15300
H1157       H  0.89684108  0.84714109  0.43816679     0.10800
H1158       H  0.89832176  0.93698399  0.34459271     0.10800
H1159       H  0.85443620  0.90413251  0.31183445     0.10800
H1160       H  0.85295538  0.81429017  0.40540860     0.10800
C1161       C  0.86310881  0.66072894  0.39137537    -0.15300
C1162       C  0.85030675  0.64461076  0.35607670     0.06800
C1163       C  0.86308586  0.60935846  0.33986258    -0.15300
C1164       C  0.88816838  0.59054461  0.35862590    -0.15300
C1165       C  0.90097042  0.60666282  0.39392460     0.06800
C1166       C  0.88819133  0.64191517  0.41013874    -0.15300
H1167       H  0.85370438  0.68784987  0.40456471     0.10800
H1168       H  0.85366910  0.59624924  0.31269471     0.10800
H1169       H  0.89757266  0.56342353  0.34543676     0.10800
H1170       H  0.89760814  0.65502457  0.43730645     0.10800
C1171       C  0.63789706  0.89160768  0.33954448    -0.15300
C1172       C  0.65099804  0.85671400  0.35609544     0.06800
C1173       C  0.63849432  0.84090689  0.39171520    -0.15300
C1174       C  0.61338012  0.85966615  0.41045666    -0.15300
C1175       C  0.60027908  0.89455975  0.39390571     0.06800
C1176       C  0.61278287  0.91036687  0.35828601    -0.15300
H1177       H  0.64707670  0.90446651  0.31212170     0.10800
H1178       H  0.64815397  0.81406814  0.40516997     0.10800
H1179       H  0.60420042  0.84680699  0.43787938     0.10800
H1180       H  0.60312295  0.93720593  0.34483085     0.10800
C1181       C  0.86352428  0.89144657  0.16061318    -0.15300
C1182       C  0.85028913  0.85670575  0.14392370     0.06800
C1183       C  0.86265025  0.84105936  0.10814862    -0.15300
C1184       C  0.88775299  0.85982704  0.08938822    -0.15300
C1185       C  0.90098810  0.89456788  0.10607765     0.06800
C1186       C  0.88862705  0.91021428  0.14185275    -0.15300
H1187       H  0.85446346  0.90417305  0.18816405     0.10800
H1188       H  0.85287851  0.81434858  0.09457680     0.10800
H1189       H  0.89681376  0.84710060  0.06183737     0.10800
H1190       H  0.89839877  0.93692520  0.15542425     0.10800
N1191       N  0.96495271  0.95339769  0.57521027    -0.08100
N1192       N  0.94199907  0.94744565  0.60074423    -0.60200
N1193       N  0.53631250  0.92550453  0.54727300    -0.07800
N1194       N  0.55929177  0.90001464  0.55317328    -0.62300
N1195       N  0.53630343  0.95341635  0.57524472    -0.07400
N1196       N  0.55927456  0.94749379  0.60076620    -0.60200
N1197       N  0.96495024  0.92548607  0.54723845    -0.07100
N1198       N  0.94198507  0.89997382  0.55314335    -0.62700
C1199       C  0.92782872  0.91405450  0.58659390     0.94100
C1200       C  0.57345658  0.91410992  0.58661111     0.93900
N1201       N  0.53632694  0.95340518  0.92478065    -0.08300
N1202       N  0.55927383  0.94744628  0.89923790    -0.60800
N1203       N  0.96496160  0.92550838  0.95273266    -0.06400
N1204       N  0.94196464  0.90003976  0.94685682    -0.62000
N1205       N  0.96498179  0.95340568  0.92474509    -0.08300
N1206       N  0.94201011  0.94748226  0.89922578    -0.61100
N1207       N  0.53632866  0.92549294  0.95275325    -0.06000
N1208       N  0.55928567  0.89997097  0.94683760    -0.62100
Mn1209     Mn  0.00063941  0.92417297  0.49999889     1.18400
C1210       C  0.57343830  0.91404780  0.91338313     0.96200
C1211       C  0.92780825  0.91412381  0.91340666     0.96800
N1212       N  0.53630689  0.54787173  0.57522334    -0.08300
N1213       N  0.55929948  0.55376950  0.60071742    -0.64600
N1214       N  0.96495264  0.57580933  0.54724684    -0.07100
N1215       N  0.94200501  0.60134073  0.55317706    -0.65300
N1216       N  0.96494336  0.54787550  0.57519827    -0.07800
N1217       N  0.94198476  0.55381635  0.60072769    -0.64900
N1218       N  0.53629438  0.57581086  0.54727668    -0.06700
N1219       N  0.55926686  0.60130846  0.55318286    -0.65600
Mn1220     Mn  0.50062364  0.50064183  0.57655209     1.10700
C1221       C  0.57346120  0.58717758  0.58658561     0.97400
C1222       C  0.92783591  0.58723666  0.58660693     0.97500
N1223       N  0.96497241  0.54786684  0.92475682    -0.07800
N1224       N  0.94199592  0.55377999  0.89924175    -0.63200
N1225       N  0.53630998  0.57582178  0.95274849    -0.07200
N1226       N  0.55926114  0.60135031  0.94682709    -0.59900
N1227       N  0.53632888  0.54788418  0.92480122    -0.08500
N1228       N  0.55929723  0.55381906  0.89928585    -0.62800
N1229       N  0.96496403  0.57578540  0.95272292    -0.07500
N1230       N  0.94198424  0.60127271  0.94682128    -0.60000
Mn1231     Mn  0.50065645  0.50064209  0.92343687     1.20200
Mn1232     Mn  0.50062914  0.57713443  0.49999801     1.10100
Cl1233     Cl  0.50063774  0.50064765  0.49999632    -0.87900
C1234       C  0.92781560  0.58716674  0.91339223     0.94400
C1235       C  0.57344252  0.58723960  0.91340766     0.94200
N1236       N  0.78629546  0.79786786  0.82525624    -0.08100
N1237       N  0.80926716  0.80379121  0.85077551    -0.60200
N1238       N  0.71494861  0.82578075  0.79724812    -0.07800
N1239       N  0.69199154  0.85130260  0.80316369    -0.62300
N1240       N  0.71495022  0.79786834  0.82522062    -0.07400
N1241       N  0.69200334  0.80382725  0.85076336    -0.60200
N1242       N  0.78631558  0.82576519  0.79726860    -0.07100
N1243       N  0.80931264  0.85123362  0.80314435    -0.62700
C1244       C  0.82346900  0.83714970  0.83659465     0.94100
C1245       C  0.67783889  0.83722577  0.83661816     0.93900
N1246       N  0.71497368  0.79785706  0.67475672    -0.08300
N1247       N  0.69200266  0.80377970  0.64923508    -0.60800
N1248       N  0.78632701  0.82578748  0.70276288    -0.06400
N1249       N  0.80929217  0.85129970  0.69685796    -0.62000
N1250       N  0.78632446  0.79787587  0.67479101    -0.08300
N1251       N  0.80927817  0.80382780  0.64925714    -0.61100
N1252       N  0.71496477  0.82576909  0.70272821    -0.06000
N1253       N  0.69198545  0.85125895  0.69682813    -0.62100
Mn1254     Mn  0.75063781  0.82710064  0.75000235     1.18400
C1255       C  0.67782065  0.83716357  0.66339028     0.96200
C1256       C  0.82344849  0.83721907  0.66340735     0.96800
N1257       N  0.71494833  0.70338937  0.82520006    -0.08300
N1258       N  0.69197999  0.69745451  0.85071547    -0.65400
N1259       N  0.78631327  0.67548820  0.79727830    -0.07100
N1260       N  0.80929303  0.65000087  0.80318003    -0.65300
N1261       N  0.78630483  0.70340670  0.82524451    -0.07800
N1262       N  0.80928127  0.69749355  0.85075959    -0.64900
N1263       N  0.71496727  0.67545173  0.79725283    -0.06700
N1264       N  0.69201608  0.64992326  0.80317406    -0.65600
Mn1265     Mn  0.75062076  0.75063148  0.82656447     1.10700
C1266       C  0.67783475  0.66403397  0.83659358     0.97400
C1267       C  0.82346167  0.66410683  0.83660910     0.97500
N1268       N  0.78633383  0.70339803  0.67480311    -0.07800
N1269       N  0.80929239  0.69745721  0.64927363    -0.63200
N1270       N  0.71498282  0.67546270  0.70272461    -0.07200
N1271       N  0.69201030  0.64996518  0.69681839    -0.59900
N1272       N  0.71497027  0.70340188  0.67477799    -0.08500
N1273       N  0.69197763  0.69750404  0.64928398    -0.62800
N1274       N  0.78632458  0.67546426  0.70275453    -0.07500
N1275       N  0.80927229  0.64993293  0.69682431    -0.60000
Mn1276     Mn  0.75065360  0.75063169  0.67344927     1.20200
Mn1277     Mn  0.75064806  0.67413916  0.75000333     1.10100
Cl1278     Cl  0.75063947  0.75062591  0.75000500    -0.87900
C1279       C  0.82344127  0.66403695  0.66339437     0.94400
C1280       C  0.67781590  0.66409598  0.66341568     0.94200
C1281       C  0.61341771  0.59019080  0.64099973    -0.15300
C1282       C  0.60030980  0.60666989  0.60605670     0.06800
C1283       C  0.61278192  0.64227610  0.59021748    -0.15300
C1284       C  0.63785949  0.66108286  0.60900149    -0.15300
C1285       C  0.65096732  0.64460374  0.64394454     0.06800
C1286       C  0.63849525  0.60899751  0.65978374    -0.15300
H1287       H  0.60426592  0.56277994  0.65388478     0.10800
H1288       H  0.60311629  0.65568061  0.56334208     0.10800
H1289       H  0.64701135  0.68849373  0.59611654     0.10800
H1290       H  0.64816067  0.59559311  0.68665917     0.10800
C1291       C  0.61304441  0.64201482  0.91007051    -0.15300
C1292       C  0.60028600  0.60672031  0.89392814     0.06800
C1293       C  0.61312678  0.59050533  0.85869606    -0.15300
C1294       C  0.63823279  0.60925883  0.83993080    -0.15300
C1295       C  0.65099126  0.64455331  0.85607314     0.06800
C1296       C  0.63815045  0.66076831  0.89130520    -0.15300
H1297       H  0.60359404  0.65520150  0.93718063     0.10800
H1298       H  0.60374251  0.56334360  0.84556813     0.10800
H1299       H  0.64768315  0.59607198  0.81282074     0.10800
H1300       H  0.64753498  0.68792998  0.90443331     0.10800
C1301       C  0.61312451  0.85940644  0.58981735    -0.15300
C1302       C  0.60030292  0.89461084  0.60607996     0.06800
C1303       C  0.61306684  0.91068067  0.64142485    -0.15300
C1304       C  0.63815274  0.89186724  0.66018399    -0.15300
C1305       C  0.65097429  0.85666278  0.64392142     0.06800
C1306       C  0.63821040  0.84059301  0.60857647    -0.15300
H1307       H  0.60373674  0.84633235  0.56261565     0.10800
H1308       H  0.60363249  0.93776638  0.65465105     0.10800
H1309       H  0.64754033  0.90494088  0.68738575     0.10800
H1310       H  0.64764476  0.81350776  0.59535032     0.10800
C1311       C  0.88819320  0.59055604  0.64136372    -0.15300
C1312       C  0.90099579  0.60672117  0.60608606     0.06800
C1313       C  0.88819595  0.64196554  0.58988581    -0.15300
C1314       C  0.86308396  0.66071767  0.60863751    -0.15300
C1315       C  0.85028140  0.64455262  0.64391518     0.06800
C1316       C  0.86308120  0.60930822  0.66011538    -0.15300
H1317       H  0.89761343  0.56343700  0.65453870     0.10800
H1318       H  0.89761442  0.65510991  0.56273589     0.10800
H1319       H  0.85366382  0.68783724  0.59546260     0.10800
H1320       H  0.85366277  0.59616371  0.68726528     0.10800
C1321       C  0.88776555  0.85985442  0.91061660    -0.15300
C1322       C  0.90096185  0.89462650  0.89393476     0.06800
C1323       C  0.88858344  0.91024941  0.85815860    -0.15300
C1324       C  0.86351172  0.89141904  0.83938475    -0.15300
C1325       C  0.85031546  0.85664695  0.85606659     0.06800
C1326       C  0.86269383  0.84102404  0.89184278    -0.15300
H1327       H  0.89684111  0.84714092  0.93816678     0.10800
H1328       H  0.89832169  0.93698345  0.84459269     0.10800
H1329       H  0.85443630  0.90413223  0.81183456     0.10800
H1330       H  0.85295545  0.81429014  0.90540867     0.10800
C1331       C  0.86310889  0.66072899  0.89137551    -0.15300
C1332       C  0.85030682  0.64461078  0.85607678     0.06800
C1333       C  0.86308587  0.60935840  0.83986263    -0.15300
C1334       C  0.88816838  0.59054459  0.85862596    -0.15300
C1335       C  0.90097049  0.60666283  0.89392460     0.06800
C1336       C  0.88819138  0.64191509  0.91013875    -0.15300
H1337       H  0.85370461  0.68785007  0.90456469     0.10800
H1338       H  0.85366902  0.59624903  0.81269491     0.10800
H1339       H  0.89757277  0.56342360  0.84543664     0.10800
H1340       H  0.89760845  0.65502456  0.93730654     0.10800
C1341       C  0.63789706  0.89160762  0.83954447    -0.15300
C1342       C  0.65099807  0.85671404  0.85609554     0.06800
C1343       C  0.63849424  0.84090693  0.89171535    -0.15300
C1344       C  0.61338010  0.85966606  0.91045683    -0.15300
C1345       C  0.60027914  0.89455961  0.89390577     0.06800
C1346       C  0.61278291  0.91036678  0.85828598    -0.15300
H1347       H  0.64707692  0.90446677  0.81212165     0.10800
H1348       H  0.64815421  0.81406827  0.90517059     0.10800
H1349       H  0.60420021  0.84680691  0.93787958     0.10800
H1350       H  0.60312289  0.93720550  0.84483101     0.10800
C1351       C  0.86352418  0.89144658  0.66061310    -0.15300
C1352       C  0.85028915  0.85670577  0.64392370     0.06800
C1353       C  0.86265028  0.84105929  0.60814855    -0.15300
C1354       C  0.88775306  0.85982703  0.58938819    -0.15300
C1355       C  0.90098812  0.89456781  0.60607760     0.06800
C1356       C  0.88862696  0.91021431  0.64185274    -0.15300
H1357       H  0.85446307  0.90417322  0.68816394     0.10800
H1358       H  0.85287878  0.81434835  0.59457726     0.10800
H1359       H  0.89681414  0.84710029  0.56183737     0.10800
H1360       H  0.89839846  0.93692524  0.65542412     0.10800
loop_ 
_geom_bond_atom_site_label_1 
_geom_bond_atom_site_label_2 
_geom_bond_distance 
_geom_bond_site_symmetry_2 
_ccdc_geom_bond_type 
N1            N2   1.320       .  A
N1            N7   1.315       .  A
N1        Mn1050   2.202       .  S
N2            C9   1.354       .  A
N3            N5   1.315       .  A
N3            N4   1.320       .  A
N3         Mn699   2.202   1_554  S
N4           C10   1.353       .  A
N5            N6   1.320       .  A
N5         Mn370   2.202       .  S
N6           C10   1.354       .  A
N7            N8   1.320       .  A
N7          Mn19   2.201   1_554  S
N8            C9   1.354       .  A
C9          C165   1.478       .  S
C10         C112   1.478       .  S
N11          N17   1.315       .  A
N11          N12   1.320       .  A
N11        Mn381   2.202       .  S
N12          C20   1.354       .  A
N13          N14   1.320       .  A
N13          N15   1.315       .  A
N13        Mn189   2.202       .  S
N14          C21   1.354       .  A
N15          N16   1.320       .  A
N15       Mn1061   2.202       .  S
N16          C21   1.354       .  A
N17          N18   1.320       .  A
N17        Mn869   2.202       .  S
N18          C20   1.354       .  A
Mn19        N683   2.202   1_556  S
Mn19        N183   2.202       .  S
Mn19        N867   2.202       .  S
Mn19      Cl1063   2.546       .  S
C20         C155   1.478       .  S
C21         C132   1.478       .  S
N22          N23   1.320       .  A
N22          N28   1.315       .  A
N22         Mn30   2.202       .  S
N23          C31   1.354       .  A
N24          N26   1.315       .  A
N24          N25   1.320       .  A
N24        Mn722   2.201   1_554  S
N25          C32   1.353       .  A
N26          N27   1.320       .  A
N26        Mn710   2.202       .  S
N27          C32   1.354       .  A
N28          N29   1.320       .  A
N28         Mn42   2.202   1_554  S
N29          C31   1.353       .  A
Mn30       N1021   2.202   1_445  S
Mn30        N345   2.202   1_545  S
Mn30        N706   2.202   1_455  S
Mn30        Cl43   2.547   1_554  S
C31          C92   1.478       .  S
C32         C122   1.478       .  S
N33          N34   1.320       .  A
N33          N39   1.315       .  A
N33        Mn721   2.202       .  S
N34          C44   1.354       .  A
N35          N36   1.320       .  A
N35          N37   1.315       .  A
N35        Mn212   2.201       .  S
N36          C45   1.354       .  A
N37          N38   1.320       .  A
N37         Mn41   2.202       .  S
N38          C45   1.354       .  A
N39          N40   1.320       .  A
N39        Mn892   2.201       .  S
N40          C44   1.353       .  A
Mn41        N351   2.202   1_545  S
Mn41       N1035   2.202   1_445  S
Mn41        N713   2.202   1_455  S
Mn41       Cl213   2.547       .  S
Mn42        N704   2.201   1_456  S
Mn42        N205   2.201       .  S
Mn42        N889   2.201   1_455  S
Mn42        Cl43   2.547       .  S
Cl43      Mn1039   2.546   1_545  S
Cl43       Mn211   2.547       .  S
C44         C145   1.478       .  S
C45         C102   1.478       .  S
N46          N47   1.320       .  A
N46          N52   1.315       .  A
N46         Mn75   2.202       .  S
N47          C54   1.354       .  A
N48          N50   1.315       .  A
N48          N49   1.320       .  A
N48         Mn64   2.202       .  S
N49          C55   1.354       .  A
N50          N51   1.320       .  A
N50         Mn75   2.202       .  S
N51          C55   1.354       .  A
N52          N53   1.320       .  A
N52         Mn64   2.202       .  S
N53          C54   1.354       .  A
C54         C135   1.478       .  S
C55         C152   1.478       .  S
N56          N62   1.315       .  A
N56          N57   1.320       .  A
N56         Mn86   2.202       .  S
N57          C65   1.354       .  A
N58          N59   1.320       .  A
N58          N60   1.315       .  A
N58         Mn64   2.201       .  S
N59          C66   1.354       .  A
N60          N61   1.320       .  A
N60         Mn86   2.202       .  S
N61          C66   1.354       .  A
N62          N63   1.320       .  A
N62         Mn64   2.202       .  S
N63          C65   1.353       .  A
Mn64        Cl88   2.546       .  S
C65         C115   1.478       .  S
C66         C162   1.478       .  S
N67          N68   1.320       .  A
N67          N73   1.315       .  A
N67         Mn75   2.202       .  S
N68          C76   1.354       .  A
N69          N71   1.315       .  A
N69          N70   1.320       .  A
N69         Mn87   2.201       .  S
N70          C77   1.353       .  A
N71          N72   1.320       .  A
N71         Mn75   2.202       .  S
N72          C77   1.354       .  A
N73          N74   1.320       .  A
N73         Mn87   2.201       .  S
N74          C76   1.354       .  A
Mn75        Cl88   2.547       .  S
C76         C105   1.478       .  S
C77         C142   1.478       .  S
N78          N79   1.320       .  A
N78          N84   1.315       .  A
N78         Mn86   2.202       .  S
N79          C89   1.354       .  A
N80          N81   1.320       .  A
N80          N82   1.315       .  A
N80         Mn87   2.202       .  S
N81          C90   1.354       .  A
N82          N83   1.320       .  A
N82         Mn86   2.202       .  S
N83          C90   1.354       .  A
N84          N85   1.320       .  A
N84         Mn87   2.201       .  S
N85          C89   1.353       .  A
Mn86        Cl88   2.547       .  S
Mn87        Cl88   2.547       .  S
C89         C125   1.478       .  S
C90          C95   1.478       .  S
C91          C92   1.405       .  A
C91          C96   1.398       .  A
C91          H97   1.083       .  S
C92          C93   1.405       .  A
C93          C94   1.398       .  A
C93          H98   1.083       .  S
C94          C95   1.405       .  A
C94          H99   1.083       .  S
C95          C96   1.405       .  A
C96         H100   1.083       .  S
C101        C102   1.405       .  A
C101        C106   1.398       .  A
C101        H107   1.083       .  S
C102        C103   1.405       .  A
C103        C104   1.398       .  A
C103        H108   1.083       .  S
C104        C105   1.405       .  A
C104        H109   1.083       .  S
C105        C106   1.405       .  A
C106        H110   1.083       .  S
C111        C112   1.405       .  A
C111        C116   1.398       .  A
C111        H117   1.083       .  S
C112        C113   1.405       .  A
C113        C114   1.398       .  A
C113        H118   1.083       .  S
C114        C115   1.405       .  A
C114        H119   1.083       .  S
C115        C116   1.405       .  A
C116        H120   1.083       .  S
C121        C122   1.405       .  A
C121        C126   1.398       .  A
C121        H127   1.083       .  S
C122        C123   1.405       .  A
C123        C124   1.398       .  A
C123        H128   1.083       .  S
C124        C125   1.405       .  A
C124        H129   1.083       .  S
C125        C126   1.405       .  A
C126        H130   1.083       .  S
C131        C132   1.405       .  A
C131        C136   1.398       .  A
C131        H137   1.083       .  S
C132        C133   1.405       .  A
C133        C134   1.398       .  A
C133        H138   1.083       .  S
C134        C135   1.405       .  A
C134        H139   1.083       .  S
C135        C136   1.405       .  A
C136        H140   1.083       .  S
C141        C142   1.405       .  A
C141        C146   1.398       .  A
C141        H147   1.083       .  S
C142        C143   1.405       .  A
C143        C144   1.398       .  A
C143        H148   1.083       .  S
C144        C145   1.405       .  A
C144        H149   1.083       .  S
C145        C146   1.405       .  A
C146        H150   1.083       .  S
C151        C152   1.405       .  A
C151        C156   1.398       .  A
C151        H157   1.083       .  S
C152        C153   1.405       .  A
C153        C154   1.398       .  A
C153        H158   1.083       .  S
C154        C155   1.405       .  A
C154        H159   1.083       .  S
C155        C156   1.405       .  A
C156        H160   1.083       .  S
C161        C162   1.405       .  A
C161        C166   1.398       .  A
C161        H167   1.083       .  S
C162        C163   1.405       .  A
C163        C164   1.398       .  A
C163        H168   1.083       .  S
C164        C165   1.405       .  A
C164        H169   1.083       .  S
C165        C166   1.405       .  A
C166        H170   1.083       .  S
N171        N172   1.320       .  A
N171        N177   1.315       .  A
N171      Mn1220   2.202       .  S
N172        C179   1.354       .  A
N173        N175   1.315       .  A
N173        N174   1.320       .  A
N173       Mn869   2.202       .  S
N174        C180   1.353       .  A
N175        N176   1.320       .  A
N175       Mn540   2.202       .  S
N176        C180   1.354       .  A
N177        N178   1.320       .  A
N177       Mn189   2.201       .  S
N178        C179   1.354       .  A
C179        C335   1.478       .  S
C180        C282   1.478       .  S
N181        N187   1.315       .  A
N181        N182   1.320       .  A
N181       Mn551   2.202       .  S
N182        C190   1.354       .  A
N183        N184   1.320       .  A
N183        N185   1.315       .  A
N184        C191   1.354       .  A
N185        N186   1.320       .  A
N185      Mn1231   2.202       .  S
N186        C191   1.354       .  A
N187        N188   1.320       .  A
N187       Mn699   2.202       .  S
N188        C190   1.354       .  A
Mn189       N853   2.202       .  S
Mn189       N697   2.202       .  S
Mn189     Cl1233   2.546       .  S
C190        C325   1.478       .  S
C191        C302   1.478       .  S
N192        N193   1.320       .  A
N192        N198   1.315       .  A
N192       Mn200   2.202       .  S
N193        C201   1.354       .  A
N194        N196   1.315       .  A
N194        N195   1.320       .  A
N194       Mn892   2.201       .  S
N195        C202   1.353       .  A
N196        N197   1.320       .  A
N196       Mn880   2.202       .  S
N197        C202   1.354       .  A
N198        N199   1.320       .  A
N198       Mn212   2.202       .  S
N199        C201   1.354       .  A
Mn200      N1191   2.202   1_445  S
Mn200       N515   2.202   1_545  S
Mn200       N876   2.202   1_455  S
Mn200      Cl213   2.547       .  S
C201        C262   1.478       .  S
C202        C292   1.478       .  S
N203        N204   1.320       .  A
N203        N209   1.315       .  A
N203       Mn891   2.202       .  S
N204        C214   1.354       .  A
N205        N206   1.320       .  A
N205        N207   1.315       .  A
N206        C215   1.354       .  A
N207        N208   1.320       .  A
N207       Mn211   2.202       .  S
N208        C215   1.354       .  A
N209        N210   1.320       .  A
N209       Mn722   2.201       .  S
N210        C214   1.353       .  A
Mn211       N521   2.202   1_545  S
Mn211      N1205   2.202   1_445  S
Mn211       N883   2.202   1_455  S
Mn212       N874   2.201   1_455  S
Mn212       N719   2.201   1_455  S
Mn212      Cl213   2.547       .  S
Cl213     Mn1209   2.546   1_545  S
C214        C315   1.478       .  S
C215        C272   1.478       .  S
N216        N217   1.320       .  A
N216        N222   1.315       .  A
N216       Mn245   2.202       .  S
N217        C224   1.354       .  A
N218        N220   1.315       .  A
N218        N219   1.320       .  A
N218       Mn234   2.202       .  S
N219        C225   1.354       .  A
N220        N221   1.320       .  A
N220       Mn245   2.202       .  S
N221        C225   1.354       .  A
N222        N223   1.320       .  A
N222       Mn234   2.202       .  S
N223        C224   1.354       .  A
C224        C305   1.478       .  S
C225        C322   1.478       .  S
N226        N232   1.315       .  A
N226        N227   1.320       .  A
N226       Mn256   2.202       .  S
N227        C235   1.354       .  A
N228        N229   1.320       .  A
N228        N230   1.315       .  A
N228       Mn234   2.201       .  S
N229        C236   1.354       .  A
N230        N231   1.320       .  A
N230       Mn256   2.202       .  S
N231        C236   1.354       .  A
N232        N233   1.320       .  A
N232       Mn234   2.202       .  S
N233        C235   1.353       .  A
Mn234      Cl258   2.546       .  S
C235        C285   1.478       .  S
C236        C332   1.478       .  S
N237        N238   1.320       .  A
N237        N243   1.315       .  A
N237       Mn245   2.202       .  S
N238        C246   1.354       .  A
N239        N241   1.315       .  A
N239        N240   1.320       .  A
N239       Mn257   2.201       .  S
N240        C247   1.353       .  A
N241        N242   1.320       .  A
N241       Mn245   2.202       .  S
N242        C247   1.354       .  A
N243        N244   1.320       .  A
N243       Mn257   2.201       .  S
N244        C246   1.354       .  A
Mn245      Cl258   2.547       .  S
C246        C275   1.478       .  S
C247        C312   1.478       .  S
N248        N249   1.320       .  A
N248        N254   1.315       .  A
N248       Mn256   2.202       .  S
N249        C259   1.354       .  A
N250        N251   1.320       .  A
N250        N252   1.315       .  A
N250       Mn257   2.202       .  S
N251        C260   1.354       .  A
N252        N253   1.320       .  A
N252       Mn256   2.202       .  S
N253        C260   1.354       .  A
N254        N255   1.320       .  A
N254       Mn257   2.201       .  S
N255        C259   1.353       .  A
Mn256      Cl258   2.547       .  S
Mn257      Cl258   2.547       .  S
C259        C295   1.478       .  S
C260        C265   1.478       .  S
C261        C262   1.405       .  A
C261        C266   1.398       .  A
C261        H267   1.083       .  S
C262        C263   1.405       .  A
C263        C264   1.398       .  A
C263        H268   1.083       .  S
C264        C265   1.405       .  A
C264        H269   1.083       .  S
C265        C266   1.405       .  A
C266        H270   1.083       .  S
C271        C272   1.405       .  A
C271        C276   1.398       .  A
C271        H277   1.083       .  S
C272        C273   1.405       .  A
C273        C274   1.398       .  A
C273        H278   1.083       .  S
C274        C275   1.405       .  A
C274        H279   1.083       .  S
C275        C276   1.405       .  A
C276        H280   1.083       .  S
C281        C282   1.405       .  A
C281        C286   1.398       .  A
C281        H287   1.083       .  S
C282        C283   1.405       .  A
C283        C284   1.398       .  A
C283        H288   1.083       .  S
C284        C285   1.405       .  A
C284        H289   1.083       .  S
C285        C286   1.405       .  A
C286        H290   1.083       .  S
C291        C292   1.405       .  A
C291        C296   1.398       .  A
C291        H297   1.083       .  S
C292        C293   1.405       .  A
C293        C294   1.398       .  A
C293        H298   1.083       .  S
C294        C295   1.405       .  A
C294        H299   1.083       .  S
C295        C296   1.405       .  A
C296        H300   1.083       .  S
C301        C302   1.405       .  A
C301        C306   1.398       .  A
C301        H307   1.083       .  S
C302        C303   1.405       .  A
C303        C304   1.398       .  A
C303        H308   1.083       .  S
C304        C305   1.405       .  A
C304        H309   1.083       .  S
C305        C306   1.405       .  A
C306        H310   1.083       .  S
C311        C312   1.405       .  A
C311        C316   1.398       .  A
C311        H317   1.083       .  S
C312        C313   1.405       .  A
C313        C314   1.398       .  A
C313        H318   1.083       .  S
C314        C315   1.405       .  A
C314        H319   1.083       .  S
C315        C316   1.405       .  A
C316        H320   1.083       .  S
C321        C322   1.405       .  A
C321        C326   1.398       .  A
C321        H327   1.083       .  S
C322        C323   1.405       .  A
C323        C324   1.398       .  A
C323        H328   1.083       .  S
C324        C325   1.405       .  A
C324        H329   1.083       .  S
C325        C326   1.405       .  A
C326        H330   1.083       .  S
C331        C332   1.405       .  A
C331        C336   1.398       .  A
C331        H337   1.083       .  S
C332        C333   1.405       .  A
C333        C334   1.398       .  A
C333        H338   1.083       .  S
C334        C335   1.405       .  A
C334        H339   1.083       .  S
C335        C336   1.405       .  A
C336        H340   1.083       .  S
N341        N342   1.320       .  A
N341        N347   1.315       .  A
N341       Mn710   2.202   1_565  S
N342        C349   1.354       .  A
N343        N345   1.315       .  A
N343        N344   1.320       .  A
N343      Mn1039   2.202   1_554  S
N344        C350   1.353       .  A
N345        N346   1.320       .  A
N346        C350   1.354       .  A
N347        N348   1.320       .  A
N347       Mn359   2.201   1_554  S
N348        C349   1.354       .  A
C349        C505   1.478       .  S
C350        C452   1.478       .  S
N351        N357   1.315       .  A
N351        N352   1.320       .  A
N352        C360   1.354       .  A
N353        N354   1.320       .  A
N353        N355   1.315       .  A
N353       Mn529   2.202       .  S
N354        C361   1.354       .  A
N355        N356   1.320       .  A
N355       Mn721   2.202   1_565  S
N356        C361   1.354       .  A
N357        N358   1.320       .  A
N357      Mn1209   2.202       .  S
N358        C360   1.354       .  A
Mn359      N1023   2.202   1_556  S
Mn359       N523   2.202       .  S
Mn359      N1207   2.202       .  S
Mn359      Cl723   2.546   1_565  S
C360        C495   1.478       .  S
C361        C472   1.478       .  S
N362        N363   1.320       .  A
N362        N368   1.315       .  A
N362       Mn370   2.202       .  S
N363        C371   1.354       .  A
N364        N366   1.315       .  A
N364        N365   1.320       .  A
N364      Mn1062   2.201   1_554  S
N365        C372   1.353       .  A
N366        N367   1.320       .  A
N366      Mn1050   2.202       .  S
N367        C372   1.354       .  A
N368        N369   1.320       .  A
N368       Mn382   2.202   1_554  S
N369        C371   1.354       .  A
Mn370       N681   2.202   1_455  S
Mn370      N1046   2.202   1_455  S
Mn370      Cl383   2.547   1_554  S
C371        C432   1.478       .  S
C372        C462   1.478       .  S
N373        N374   1.320       .  A
N373        N379   1.315       .  A
N373      Mn1061   2.202       .  S
N374        C384   1.354       .  A
N375        N376   1.320       .  A
N375        N377   1.315       .  A
N375       Mn552   2.201       .  S
N376        C385   1.354       .  A
N377        N378   1.320       .  A
N377       Mn381   2.202       .  S
N378        C385   1.354       .  A
N379        N380   1.320       .  A
N379      Mn1232   2.201       .  S
N380        C384   1.353       .  A
Mn381       N695   2.202   1_455  S
Mn381      N1053   2.202   1_455  S
Mn381      Cl553   2.547       .  S
Mn382      N1044   2.201   1_456  S
Mn382       N545   2.201       .  S
Mn382      N1229   2.201   1_455  S
Mn382      Cl383   2.547       .  S
Cl383      Mn699   2.546       .  S
Cl383      Mn551   2.547       .  S
C384        C485   1.478       .  S
C385        C442   1.478       .  S
N386        N387   1.320       .  A
N386        N392   1.315       .  A
N386       Mn415   2.202       .  S
N387        C394   1.354       .  A
N388        N390   1.315       .  A
N388        N389   1.320       .  A
N388       Mn404   2.202       .  S
N389        C395   1.354       .  A
N390        N391   1.320       .  A
N390       Mn415   2.202       .  S
N391        C395   1.354       .  A
N392        N393   1.320       .  A
N392       Mn404   2.202       .  S
N393        C394   1.354       .  A
C394        C475   1.478       .  S
C395        C492   1.478       .  S
N396        N402   1.315       .  A
N396        N397   1.320       .  A
N396       Mn426   2.202       .  S
N397        C405   1.354       .  A
N398        N399   1.320       .  A
N398        N400   1.315       .  A
N398       Mn404   2.201       .  S
N399        C406   1.354       .  A
N400        N401   1.320       .  A
N400       Mn426   2.202       .  S
N401        C406   1.354       .  A
N402        N403   1.320       .  A
N402       Mn404   2.202       .  S
N403        C405   1.353       .  A
Mn404      Cl428   2.546       .  S
C405        C455   1.478       .  S
C406        C502   1.478       .  S
N407        N408   1.320       .  A
N407        N413   1.315       .  A
N407       Mn415   2.202       .  S
N408        C416   1.354       .  A
N409        N411   1.315       .  A
N409        N410   1.320       .  A
N409       Mn427   2.201       .  S
N410        C417   1.353       .  A
N411        N412   1.320       .  A
N411       Mn415   2.202       .  S
N412        C417   1.354       .  A
N413        N414   1.320       .  A
N413       Mn427   2.201       .  S
N414        C416   1.354       .  A
Mn415      Cl428   2.547       .  S
C416        C445   1.478       .  S
C417        C482   1.478       .  S
N418        N419   1.320       .  A
N418        N424   1.315       .  A
N418       Mn426   2.202       .  S
N419        C429   1.354       .  A
N420        N421   1.320       .  A
N420        N422   1.315       .  A
N420       Mn427   2.202       .  S
N421        C430   1.354       .  A
N422        N423   1.320       .  A
N422       Mn426   2.202       .  S
N423        C430   1.354       .  A
N424        N425   1.320       .  A
N424       Mn427   2.201       .  S
N425        C429   1.353       .  A
Mn426      Cl428   2.547       .  S
Mn427      Cl428   2.547       .  S
C429        C465   1.478       .  S
C430        C435   1.478       .  S
C431        C432   1.405       .  A
C431        C436   1.398       .  A
C431        H437   1.083       .  S
C432        C433   1.405       .  A
C433        C434   1.398       .  A
C433        H438   1.083       .  S
C434        C435   1.405       .  A
C434        H439   1.083       .  S
C435        C436   1.405       .  A
C436        H440   1.083       .  S
C441        C442   1.405       .  A
C441        C446   1.398       .  A
C441        H447   1.083       .  S
C442        C443   1.405       .  A
C443        C444   1.398       .  A
C443        H448   1.083       .  S
C444        C445   1.405       .  A
C444        H449   1.083       .  S
C445        C446   1.405       .  A
C446        H450   1.083       .  S
C451        C452   1.405       .  A
C451        C456   1.398       .  A
C451        H457   1.083       .  S
C452        C453   1.405       .  A
C453        C454   1.398       .  A
C453        H458   1.083       .  S
C454        C455   1.405       .  A
C454        H459   1.083       .  S
C455        C456   1.405       .  A
C456        H460   1.083       .  S
C461        C462   1.405       .  A
C461        C466   1.398       .  A
C461        H467   1.083       .  S
C462        C463   1.405       .  A
C463        C464   1.398       .  A
C463        H468   1.083       .  S
C464        C465   1.405       .  A
C464        H469   1.083       .  S
C465        C466   1.405       .  A
C466        H470   1.083       .  S
C471        C472   1.405       .  A
C471        C476   1.398       .  A
C471        H477   1.083       .  S
C472        C473   1.405       .  A
C473        C474   1.398       .  A
C473        H478   1.083       .  S
C474        C475   1.405       .  A
C474        H479   1.083       .  S
C475        C476   1.405       .  A
C476        H480   1.083       .  S
C481        C482   1.405       .  A
C481        C486   1.398       .  A
C481        H487   1.083       .  S
C482        C483   1.405       .  A
C483        C484   1.398       .  A
C483        H488   1.083       .  S
C484        C485   1.405       .  A
C484        H489   1.083       .  S
C485        C486   1.405       .  A
C486        H490   1.083       .  S
C491        C492   1.405       .  A
C491        C496   1.398       .  A
C491        H497   1.083       .  S
C492        C493   1.405       .  A
C493        C494   1.398       .  A
C493        H498   1.083       .  S
C494        C495   1.405       .  A
C494        H499   1.083       .  S
C495        C496   1.405       .  A
C496        H500   1.083       .  S
C501        C502   1.405       .  A
C501        C506   1.398       .  A
C501        H507   1.083       .  S
C502        C503   1.405       .  A
C503        C504   1.398       .  A
C503        H508   1.083       .  S
C504        C505   1.405       .  A
C504        H509   1.083       .  S
C505        C506   1.405       .  A
C506        H510   1.083       .  S
N511        N512   1.320       .  A
N511        N517   1.315       .  A
N511       Mn880   2.202   1_565  S
N512        C519   1.354       .  A
N513        N515   1.315       .  A
N513        N514   1.320       .  A
N513      Mn1209   2.202       .  S
N514        C520   1.353       .  A
N515        N516   1.320       .  A
N516        C520   1.354       .  A
N517        N518   1.320       .  A
N517       Mn529   2.201       .  S
N518        C519   1.354       .  A
C519        C675   1.478       .  S
C520        C622   1.478       .  S
N521        N527   1.315       .  A
N521        N522   1.320       .  A
N522        C530   1.354       .  A
N523        N524   1.320       .  A
N523        N525   1.315       .  A
N524        C531   1.354       .  A
N525        N526   1.320       .  A
N525       Mn891   2.202   1_565  S
N526        C531   1.354       .  A
N527        N528   1.320       .  A
N527      Mn1039   2.202       .  S
N528        C530   1.354       .  A
Mn529      N1193   2.202       .  S
Mn529      N1037   2.202       .  S
Mn529      Cl893   2.546   1_565  S
C530        C665   1.478       .  S
C531        C642   1.478       .  S
N532        N533   1.320       .  A
N532        N538   1.315       .  A
N532       Mn540   2.202       .  S
N533        C541   1.354       .  A
N534        N536   1.315       .  A
N534        N535   1.320       .  A
N534      Mn1232   2.201       .  S
N535        C542   1.353       .  A
N536        N537   1.320       .  A
N536      Mn1220   2.202       .  S
N537        C542   1.354       .  A
N538        N539   1.320       .  A
N538       Mn552   2.202       .  S
N539        C541   1.354       .  A
Mn540       N851   2.202   1_455  S
Mn540      N1216   2.202   1_455  S
Mn540      Cl553   2.547       .  S
C541        C602   1.478       .  S
C542        C632   1.478       .  S
N543        N544   1.320       .  A
N543        N549   1.315       .  A
N543      Mn1231   2.202       .  S
N544        C554   1.354       .  A
N545        N546   1.320       .  A
N545        N547   1.315       .  A
N546        C555   1.354       .  A
N547        N548   1.320       .  A
N547       Mn551   2.202       .  S
N548        C555   1.354       .  A
N549        N550   1.320       .  A
N549      Mn1062   2.201       .  S
N550        C554   1.353       .  A
Mn551       N865   2.202   1_455  S
Mn551      N1223   2.202   1_455  S
Mn552      N1214   2.201   1_455  S
Mn552      N1059   2.201   1_455  S
Mn552      Cl553   2.547       .  S
Cl553      Mn869   2.546       .  S
C554        C655   1.478       .  S
C555        C612   1.478       .  S
N556        N557   1.320       .  A
N556        N562   1.315       .  A
N556       Mn585   2.202       .  S
N557        C564   1.354       .  A
N558        N560   1.315       .  A
N558        N559   1.320       .  A
N558       Mn574   2.202       .  S
N559        C565   1.354       .  A
N560        N561   1.320       .  A
N560       Mn585   2.202       .  S
N561        C565   1.354       .  A
N562        N563   1.320       .  A
N562       Mn574   2.202       .  S
N563        C564   1.354       .  A
C564        C645   1.478       .  S
C565        C662   1.478       .  S
N566        N572   1.315       .  A
N566        N567   1.320       .  A
N566       Mn596   2.202       .  S
N567        C575   1.354       .  A
N568        N569   1.320       .  A
N568        N570   1.315       .  A
N568       Mn574   2.201       .  S
N569        C576   1.354       .  A
N570        N571   1.320       .  A
N570       Mn596   2.202       .  S
N571        C576   1.354       .  A
N572        N573   1.320       .  A
N572       Mn574   2.202       .  S
N573        C575   1.353       .  A
Mn574      Cl598   2.546       .  S
C575        C625   1.478       .  S
C576        C672   1.478       .  S
N577        N578   1.320       .  A
N577        N583   1.315       .  A
N577       Mn585   2.202       .  S
N578        C586   1.354       .  A
N579        N581   1.315       .  A
N579        N580   1.320       .  A
N579       Mn597   2.201       .  S
N580        C587   1.353       .  A
N581        N582   1.320       .  A
N581       Mn585   2.202       .  S
N582        C587   1.354       .  A
N583        N584   1.320       .  A
N583       Mn597   2.201       .  S
N584        C586   1.354       .  A
Mn585      Cl598   2.547       .  S
C586        C615   1.478       .  S
C587        C652   1.478       .  S
N588        N589   1.320       .  A
N588        N594   1.315       .  A
N588       Mn596   2.202       .  S
N589        C599   1.354       .  A
N590        N591   1.320       .  A
N590        N592   1.315       .  A
N590       Mn597   2.202       .  S
N591        C600   1.353       .  A
N592        N593   1.320       .  A
N592       Mn596   2.202       .  S
N593        C600   1.354       .  A
N594        N595   1.320       .  A
N594       Mn597   2.201       .  S
N595        C599   1.353       .  A
Mn596      Cl598   2.547       .  S
Mn597      Cl598   2.547       .  S
C599        C635   1.478       .  S
C600        C605   1.478       .  S
C601        C602   1.405       .  A
C601        C606   1.398       .  A
C601        H607   1.083       .  S
C602        C603   1.405       .  A
C603        C604   1.398       .  A
C603        H608   1.083       .  S
C604        C605   1.405       .  A
C604        H609   1.083       .  S
C605        C606   1.405       .  A
C606        H610   1.083       .  S
C611        C612   1.405       .  A
C611        C616   1.398       .  A
C611        H617   1.083       .  S
C612        C613   1.405       .  A
C613        C614   1.398       .  A
C613        H618   1.083       .  S
C614        C615   1.405       .  A
C614        H619   1.083       .  S
C615        C616   1.405       .  A
C616        H620   1.083       .  S
C621        C622   1.405       .  A
C621        C626   1.398       .  A
C621        H627   1.083       .  S
C622        C623   1.405       .  A
C623        C624   1.398       .  A
C623        H628   1.083       .  S
C624        C625   1.405       .  A
C624        H629   1.083       .  S
C625        C626   1.405       .  A
C626        H630   1.083       .  S
C631        C632   1.405       .  A
C631        C636   1.398       .  A
C631        H637   1.083       .  S
C632        C633   1.405       .  A
C633        C634   1.398       .  A
C633        H638   1.083       .  S
C634        C635   1.405       .  A
C634        H639   1.083       .  S
C635        C636   1.405       .  A
C636        H640   1.083       .  S
C641        C642   1.405       .  A
C641        C646   1.398       .  A
C641        H647   1.083       .  S
C642        C643   1.405       .  A
C643        C644   1.398       .  A
C643        H648   1.083       .  S
C644        C645   1.405       .  A
C644        H649   1.083       .  S
C645        C646   1.405       .  A
C646        H650   1.083       .  S
C651        C652   1.405       .  A
C651        C656   1.398       .  A
C651        H657   1.083       .  S
C652        C653   1.405       .  A
C653        C654   1.398       .  A
C653        H658   1.083       .  S
C654        C655   1.405       .  A
C654        H659   1.083       .  S
C655        C656   1.405       .  A
C656        H660   1.083       .  S
C661        C662   1.405       .  A
C661        C666   1.398       .  A
C661        H667   1.083       .  S
C662        C663   1.405       .  A
C663        C664   1.398       .  A
C663        H668   1.083       .  S
C664        C665   1.405       .  A
C664        H669   1.083       .  S
C665        C666   1.405       .  A
C666        H670   1.083       .  S
C671        C672   1.405       .  A
C671        C676   1.398       .  A
C671        H677   1.083       .  S
C672        C673   1.405       .  A
C673        C674   1.398       .  A
C673        H678   1.083       .  S
C674        C675   1.405       .  A
C674        H679   1.083       .  S
C675        C676   1.405       .  A
C676        H680   1.083       .  S
N681        N682   1.320       .  A
N681        N687   1.315       .  A
N682        C689   1.354       .  A
N683        N685   1.315       .  A
N683        N684   1.320       .  A
N684        C690   1.353       .  A
N685        N686   1.320       .  A
N685      Mn1050   2.202       .  S
N686        C690   1.354       .  A
N687        N688   1.320       .  A
N687       Mn699   2.201   1_654  S
N688        C689   1.354       .  A
C689        C845   1.478       .  S
C690        C792   1.478       .  S
N691        N697   1.315       .  A
N691        N692   1.320       .  A
N691      Mn1061   2.202       .  S
N692        C700   1.354       .  A
N693        N694   1.320       .  A
N693        N695   1.315       .  A
N693       Mn869   2.202   1_655  S
N694        C701   1.354       .  A
N695        N696   1.320       .  A
N696        C701   1.354       .  A
N697        N698   1.320       .  A
N698        C700   1.354       .  A
Mn699       N863   2.202   1_455  S
C700        C835   1.478       .  S
C701        C812   1.478       .  S
N702        N703   1.320       .  A
N702        N708   1.315       .  A
N702       Mn710   2.202       .  S
N703        C711   1.354       .  A
N704        N706   1.315       .  A
N704        N705   1.320       .  A
N705        C712   1.353       .  A
N706        N707   1.320       .  A
N707        C712   1.354       .  A
N708        N709   1.320       .  A
N708       Mn722   2.202   1_554  S
N709        C711   1.354       .  A
Mn710      N1025   2.202   1_545  S
Mn710      Cl723   2.547   1_554  S
C711        C772   1.478       .  S
C712        C802   1.478       .  S
N713        N714   1.320       .  A
N713        N719   1.315       .  A
N714        C724   1.354       .  A
N715        N716   1.320       .  A
N715        N717   1.315       .  A
N715       Mn892   2.201       .  S
N716        C725   1.354       .  A
N717        N718   1.320       .  A
N717       Mn721   2.202       .  S
N718        C725   1.354       .  A
N719        N720   1.320       .  A
N720        C724   1.353       .  A
Mn721      N1031   2.202   1_545  S
Mn721      Cl893   2.547       .  S
Mn722       N885   2.201       .  S
Mn722      Cl723   2.547       .  S
Cl723      Mn891   2.547       .  S
C724        C825   1.478       .  S
C725        C782   1.478       .  S
N726        N727   1.320       .  A
N726        N732   1.315       .  A
N726       Mn755   2.202       .  S
N727        C734   1.354       .  A
N728        N730   1.315       .  A
N728        N729   1.320       .  A
N728       Mn744   2.202       .  S
N729        C735   1.354       .  A
N730        N731   1.320       .  A
N730       Mn755   2.202       .  S
N731        C735   1.354       .  A
N732        N733   1.320       .  A
N732       Mn744   2.202       .  S
N733        C734   1.354       .  A
C734        C815   1.478       .  S
C735        C832   1.478       .  S
N736        N742   1.315       .  A
N736        N737   1.320       .  A
N736       Mn766   2.202       .  S
N737        C745   1.354       .  A
N738        N739   1.320       .  A
N738        N740   1.315       .  A
N738       Mn744   2.201       .  S
N739        C746   1.354       .  A
N740        N741   1.320       .  A
N740       Mn766   2.202       .  S
N741        C746   1.354       .  A
N742        N743   1.320       .  A
N742       Mn744   2.202       .  S
N743        C745   1.353       .  A
Mn744      Cl768   2.546       .  S
C745        C795   1.478       .  S
C746        C842   1.478       .  S
N747        N748   1.320       .  A
N747        N753   1.315       .  A
N747       Mn755   2.202       .  S
N748        C756   1.354       .  A
N749        N751   1.315       .  A
N749        N750   1.320       .  A
N749       Mn767   2.201       .  S
N750        C757   1.353       .  A
N751        N752   1.320       .  A
N751       Mn755   2.202       .  S
N752        C757   1.354       .  A
N753        N754   1.320       .  A
N753       Mn767   2.201       .  S
N754        C756   1.354       .  A
Mn755      Cl768   2.547       .  S
C756        C785   1.478       .  S
C757        C822   1.478       .  S
N758        N759   1.320       .  A
N758        N764   1.315       .  A
N758       Mn766   2.202       .  S
N759        C769   1.354       .  A
N760        N761   1.320       .  A
N760        N762   1.315       .  A
N760       Mn767   2.202       .  S
N761        C770   1.354       .  A
N762        N763   1.320       .  A
N762       Mn766   2.202       .  S
N763        C770   1.354       .  A
N764        N765   1.320       .  A
N764       Mn767   2.201       .  S
N765        C769   1.353       .  A
Mn766      Cl768   2.547       .  S
Mn767      Cl768   2.547       .  S
C769        C805   1.478       .  S
C770        C775   1.478       .  S
C771        C772   1.405       .  A
C771        C776   1.398       .  A
C771        H777   1.083       .  S
C772        C773   1.405       .  A
C773        C774   1.398       .  A
C773        H778   1.083       .  S
C774        C775   1.405       .  A
C774        H779   1.083       .  S
C775        C776   1.405       .  A
C776        H780   1.083       .  S
C781        C782   1.405       .  A
C781        C786   1.398       .  A
C781        H787   1.083       .  S
C782        C783   1.405       .  A
C783        C784   1.398       .  A
C783        H788   1.083       .  S
C784        C785   1.405       .  A
C784        H789   1.083       .  S
C785        C786   1.405       .  A
C786        H790   1.083       .  S
C791        C792   1.405       .  A
C791        C796   1.398       .  A
C791        H797   1.083       .  S
C792        C793   1.405       .  A
C793        C794   1.398       .  A
C793        H798   1.083       .  S
C794        C795   1.405       .  A
C794        H799   1.083       .  S
C795        C796   1.405       .  A
C796        H800   1.083       .  S
C801        C802   1.405       .  A
C801        C806   1.398       .  A
C801        H807   1.083       .  S
C802        C803   1.405       .  A
C803        C804   1.398       .  A
C803        H808   1.083       .  S
C804        C805   1.405       .  A
C804        H809   1.083       .  S
C805        C806   1.405       .  A
C806        H810   1.083       .  S
C811        C812   1.405       .  A
C811        C816   1.398       .  A
C811        H817   1.083       .  S
C812        C813   1.405       .  A
C813        C814   1.398       .  A
C813        H818   1.083       .  S
C814        C815   1.405       .  A
C814        H819   1.083       .  S
C815        C816   1.405       .  A
C816        H820   1.083       .  S
C821        C822   1.405       .  A
C821        C826   1.398       .  A
C821        H827   1.083       .  S
C822        C823   1.405       .  A
C823        C824   1.398       .  A
C823        H828   1.083       .  S
C824        C825   1.405       .  A
C824        H829   1.083       .  S
C825        C826   1.405       .  A
C826        H830   1.083       .  S
C831        C832   1.405       .  A
C831        C836   1.398       .  A
C831        H837   1.083       .  S
C832        C833   1.405       .  A
C833        C834   1.398       .  A
C833        H838   1.083       .  S
C834        C835   1.405       .  A
C834        H839   1.083       .  S
C835        C836   1.405       .  A
C836        H840   1.083       .  S
C841        C842   1.405       .  A
C841        C846   1.398       .  A
C841        H847   1.083       .  S
C842        C843   1.405       .  A
C843        C844   1.398       .  A
C843        H848   1.083       .  S
C844        C845   1.405       .  A
C844        H849   1.083       .  S
C845        C846   1.405       .  A
C846        H850   1.083       .  S
N851        N852   1.320       .  A
N851        N857   1.315       .  A
N852        C859   1.354       .  A
N853        N855   1.315       .  A
N853        N854   1.320       .  A
N854        C860   1.353       .  A
N855        N856   1.320       .  A
N855      Mn1220   2.202       .  S
N856        C860   1.354       .  A
N857        N858   1.320       .  A
N857       Mn869   2.201   1_655  S
N858        C859   1.354       .  A
C859       C1015   1.478       .  S
C860        C962   1.478       .  S
N861        N867   1.315       .  A
N861        N862   1.320       .  A
N861      Mn1231   2.202       .  S
N862        C870   1.354       .  A
N863        N864   1.320       .  A
N863        N865   1.315       .  A
N864        C871   1.354       .  A
N865        N866   1.320       .  A
N866        C871   1.354       .  A
N867        N868   1.320       .  A
N868        C870   1.354       .  A
C870       C1005   1.478       .  S
C871        C982   1.478       .  S
N872        N873   1.320       .  A
N872        N878   1.315       .  A
N872       Mn880   2.202       .  S
N873        C881   1.354       .  A
N874        N876   1.315       .  A
N874        N875   1.320       .  A
N875        C882   1.353       .  A
N876        N877   1.320       .  A
N877        C882   1.354       .  A
N878        N879   1.320       .  A
N878       Mn892   2.202       .  S
N879        C881   1.354       .  A
Mn880      N1195   2.202   1_545  S
Mn880      Cl893   2.547       .  S
C881        C942   1.478       .  S
C882        C972   1.478       .  S
N883        N884   1.320       .  A
N883        N889   1.315       .  A
N884        C894   1.354       .  A
N885        N886   1.320       .  A
N885        N887   1.315       .  A
N886        C895   1.354       .  A
N887        N888   1.320       .  A
N887       Mn891   2.202       .  S
N888        C895   1.354       .  A
N889        N890   1.320       .  A
N890        C894   1.353       .  A
Mn891      N1201   2.202   1_545  S
Mn892      Cl893   2.547       .  S
C894        C995   1.478       .  S
C895        C952   1.478       .  S
N896        N897   1.320       .  A
N896        N902   1.315       .  A
N896       Mn925   2.202       .  S
N897        C904   1.354       .  A
N898        N900   1.315       .  A
N898        N899   1.320       .  A
N898       Mn914   2.202       .  S
N899        C905   1.354       .  A
N900        N901   1.320       .  A
N900       Mn925   2.202       .  S
N901        C905   1.354       .  A
N902        N903   1.320       .  A
N902       Mn914   2.202       .  S
N903        C904   1.354       .  A
C904        C985   1.478       .  S
C905       C1002   1.478       .  S
N906        N912   1.315       .  A
N906        N907   1.320       .  A
N906       Mn936   2.202       .  S
N907        C915   1.354       .  A
N908        N909   1.320       .  A
N908        N910   1.315       .  A
N908       Mn914   2.201       .  S
N909        C916   1.354       .  A
N910        N911   1.320       .  A
N910       Mn936   2.202       .  S
N911        C916   1.354       .  A
N912        N913   1.320       .  A
N912       Mn914   2.202       .  S
N913        C915   1.353       .  A
Mn914      Cl938   2.546       .  S
C915        C965   1.478       .  S
C916       C1012   1.478       .  S
N917        N918   1.320       .  A
N917        N923   1.315       .  A
N917       Mn925   2.202       .  S
N918        C926   1.354       .  A
N919        N921   1.315       .  A
N919        N920   1.320       .  A
N919       Mn937   2.201       .  S
N920        C927   1.353       .  A
N921        N922   1.320       .  A
N921       Mn925   2.202       .  S
N922        C927   1.354       .  A
N923        N924   1.320       .  A
N923       Mn937   2.201       .  S
N924        C926   1.354       .  A
Mn925      Cl938   2.547       .  S
C926        C955   1.478       .  S
C927        C992   1.478       .  S
N928        N929   1.320       .  A
N928        N934   1.315       .  A
N928       Mn936   2.202       .  S
N929        C939   1.354       .  A
N930        N931   1.320       .  A
N930        N932   1.315       .  A
N930       Mn937   2.202       .  S
N931        C940   1.354       .  A
N932        N933   1.320       .  A
N932       Mn936   2.202       .  S
N933        C940   1.354       .  A
N934        N935   1.320       .  A
N934       Mn937   2.201       .  S
N935        C939   1.353       .  A
Mn936      Cl938   2.547       .  S
Mn937      Cl938   2.547       .  S
C939        C975   1.478       .  S
C940        C945   1.478       .  S
C941        C942   1.405       .  A
C941        C946   1.398       .  A
C941        H947   1.083       .  S
C942        C943   1.405       .  A
C943        C944   1.398       .  A
C943        H948   1.083       .  S
C944        C945   1.405       .  A
C944        H949   1.083       .  S
C945        C946   1.405       .  A
C946        H950   1.083       .  S
C951        C952   1.405       .  A
C951        C956   1.398       .  A
C951        H957   1.083       .  S
C952        C953   1.405       .  A
C953        C954   1.398       .  A
C953        H958   1.083       .  S
C954        C955   1.405       .  A
C954        H959   1.083       .  S
C955        C956   1.405       .  A
C956        H960   1.083       .  S
C961        C962   1.405       .  A
C961        C966   1.398       .  A
C961        H967   1.083       .  S
C962        C963   1.405       .  A
C963        C964   1.398       .  A
C963        H968   1.083       .  S
C964        C965   1.405       .  A
C964        H969   1.083       .  S
C965        C966   1.405       .  A
C966        H970   1.083       .  S
C971        C972   1.405       .  A
C971        C976   1.398       .  A
C971        H977   1.083       .  S
C972        C973   1.405       .  A
C973        C974   1.398       .  A
C973        H978   1.083       .  S
C974        C975   1.405       .  A
C974        H979   1.083       .  S
C975        C976   1.405       .  A
C976        H980   1.083       .  S
C981        C982   1.405       .  A
C981        C986   1.398       .  A
C981        H987   1.083       .  S
C982        C983   1.405       .  A
C983        C984   1.398       .  A
C983        H988   1.083       .  S
C984        C985   1.405       .  A
C984        H989   1.083       .  S
C985        C986   1.405       .  A
C986        H990   1.083       .  S
C991        C992   1.405       .  A
C991        C996   1.398       .  A
C991        H997   1.083       .  S
C992        C993   1.405       .  A
C993        C994   1.398       .  A
C993        H998   1.083       .  S
C994        C995   1.405       .  A
C994        H999   1.083       .  S
C995        C996   1.405       .  A
C996       H1000   1.083       .  S
C1001      C1002   1.405       .  A
C1001      C1006   1.398       .  A
C1001      H1007   1.083       .  S
C1002      C1003   1.405       .  A
C1003      C1004   1.398       .  A
C1003      H1008   1.083       .  S
C1004      C1005   1.405       .  A
C1004      H1009   1.083       .  S
C1005      C1006   1.405       .  A
C1006      H1010   1.083       .  S
C1011      C1012   1.405       .  A
C1011      C1016   1.398       .  A
C1011      H1017   1.083       .  S
C1012      C1013   1.405       .  A
C1013      C1014   1.398       .  A
C1013      H1018   1.083       .  S
C1014      C1015   1.405       .  A
C1014      H1019   1.083       .  S
C1015      C1016   1.405       .  A
C1016      H1020   1.083       .  S
N1021      N1022   1.320       .  A
N1021      N1027   1.315       .  A
N1022      C1029   1.354       .  A
N1023      N1025   1.315       .  A
N1023      N1024   1.320       .  A
N1024      C1030   1.353       .  A
N1025      N1026   1.320       .  A
N1026      C1030   1.354       .  A
N1027      N1028   1.320       .  A
N1027     Mn1039   2.201   1_654  S
N1028      C1029   1.354       .  A
C1029      C1185   1.478       .  S
C1030      C1132   1.478       .  S
N1031      N1037   1.315       .  A
N1031      N1032   1.320       .  A
N1032      C1040   1.354       .  A
N1033      N1034   1.320       .  A
N1033      N1035   1.315       .  A
N1033     Mn1209   2.202   1_655  S
N1034      C1041   1.354       .  A
N1035      N1036   1.320       .  A
N1036      C1041   1.354       .  A
N1037      N1038   1.320       .  A
N1038      C1040   1.354       .  A
Mn1039     N1203   2.202   1_455  S
C1040      C1175   1.478       .  S
C1041      C1152   1.478       .  S
N1042      N1043   1.320       .  A
N1042      N1048   1.315       .  A
N1042     Mn1050   2.202       .  S
N1043      C1051   1.354       .  A
N1044      N1046   1.315       .  A
N1044      N1045   1.320       .  A
N1045      C1052   1.353       .  A
N1046      N1047   1.320       .  A
N1047      C1052   1.354       .  A
N1048      N1049   1.320       .  A
N1048     Mn1062   2.202   1_554  S
N1049      C1051   1.354       .  A
Mn1050    Cl1063   2.547   1_554  S
C1051      C1112   1.478       .  S
C1052      C1142   1.478       .  S
N1053      N1054   1.320       .  A
N1053      N1059   1.315       .  A
N1054      C1064   1.354       .  A
N1055      N1056   1.320       .  A
N1055      N1057   1.315       .  A
N1055     Mn1232   2.201       .  S
N1056      C1065   1.354       .  A
N1057      N1058   1.320       .  A
N1057     Mn1061   2.202       .  S
N1058      C1065   1.354       .  A
N1059      N1060   1.320       .  A
N1060      C1064   1.353       .  A
Mn1061    Cl1233   2.547       .  S
Mn1062     N1225   2.201       .  S
Mn1062    Cl1063   2.547       .  S
Cl1063    Mn1231   2.547       .  S
C1064      C1165   1.478       .  S
C1065      C1122   1.478       .  S
N1066      N1067   1.320       .  A
N1066      N1072   1.315       .  A
N1066     Mn1095   2.202       .  S
N1067      C1074   1.354       .  A
N1068      N1070   1.315       .  A
N1068      N1069   1.320       .  A
N1068     Mn1084   2.202       .  S
N1069      C1075   1.354       .  A
N1070      N1071   1.320       .  A
N1070     Mn1095   2.202       .  S
N1071      C1075   1.354       .  A
N1072      N1073   1.320       .  A
N1072     Mn1084   2.202       .  S
N1073      C1074   1.354       .  A
C1074      C1155   1.478       .  S
C1075      C1172   1.478       .  S
N1076      N1082   1.315       .  A
N1076      N1077   1.320       .  A
N1076     Mn1106   2.202       .  S
N1077      C1085   1.354       .  A
N1078      N1079   1.320       .  A
N1078      N1080   1.315       .  A
N1078     Mn1084   2.201       .  S
N1079      C1086   1.354       .  A
N1080      N1081   1.320       .  A
N1080     Mn1106   2.202       .  S
N1081      C1086   1.354       .  A
N1082      N1083   1.320       .  A
N1082     Mn1084   2.202       .  S
N1083      C1085   1.353       .  A
Mn1084    Cl1108   2.546       .  S
C1085      C1135   1.478       .  S
C1086      C1182   1.478       .  S
N1087      N1088   1.320       .  A
N1087      N1093   1.315       .  A
N1087     Mn1095   2.202       .  S
N1088      C1096   1.354       .  A
N1089      N1091   1.315       .  A
N1089      N1090   1.320       .  A
N1089     Mn1107   2.201       .  S
N1090      C1097   1.353       .  A
N1091      N1092   1.320       .  A
N1091     Mn1095   2.202       .  S
N1092      C1097   1.354       .  A
N1093      N1094   1.320       .  A
N1093     Mn1107   2.201       .  S
N1094      C1096   1.354       .  A
Mn1095    Cl1108   2.547       .  S
C1096      C1125   1.478       .  S
C1097      C1162   1.478       .  S
N1098      N1099   1.320       .  A
N1098      N1104   1.315       .  A
N1098     Mn1106   2.202       .  S
N1099      C1109   1.354       .  A
N1100      N1101   1.320       .  A
N1100      N1102   1.315       .  A
N1100     Mn1107   2.202       .  S
N1101      C1110   1.354       .  A
N1102      N1103   1.320       .  A
N1102     Mn1106   2.202       .  S
N1103      C1110   1.354       .  A
N1104      N1105   1.320       .  A
N1104     Mn1107   2.201       .  S
N1105      C1109   1.353       .  A
Mn1106    Cl1108   2.547       .  S
Mn1107    Cl1108   2.547       .  S
C1109      C1145   1.478       .  S
C1110      C1115   1.478       .  S
C1111      C1112   1.405       .  A
C1111      C1116   1.398       .  A
C1111      H1117   1.083       .  S
C1112      C1113   1.405       .  A
C1113      C1114   1.398       .  A
C1113      H1118   1.083       .  S
C1114      C1115   1.405       .  A
C1114      H1119   1.083       .  S
C1115      C1116   1.405       .  A
C1116      H1120   1.083       .  S
C1121      C1122   1.405       .  A
C1121      C1126   1.398       .  A
C1121      H1127   1.083       .  S
C1122      C1123   1.405       .  A
C1123      C1124   1.398       .  A
C1123      H1128   1.083       .  S
C1124      C1125   1.405       .  A
C1124      H1129   1.083       .  S
C1125      C1126   1.405       .  A
C1126      H1130   1.083       .  S
C1131      C1132   1.405       .  A
C1131      C1136   1.398       .  A
C1131      H1137   1.083       .  S
C1132      C1133   1.405       .  A
C1133      C1134   1.398       .  A
C1133      H1138   1.083       .  S
C1134      C1135   1.405       .  A
C1134      H1139   1.083       .  S
C1135      C1136   1.405       .  A
C1136      H1140   1.083       .  S
C1141      C1142   1.405       .  A
C1141      C1146   1.398       .  A
C1141      H1147   1.083       .  S
C1142      C1143   1.405       .  A
C1143      C1144   1.398       .  A
C1143      H1148   1.083       .  S
C1144      C1145   1.405       .  A
C1144      H1149   1.083       .  S
C1145      C1146   1.405       .  A
C1146      H1150   1.083       .  S
C1151      C1152   1.405       .  A
C1151      C1156   1.398       .  A
C1151      H1157   1.083       .  S
C1152      C1153   1.405       .  A
C1153      C1154   1.398       .  A
C1153      H1158   1.083       .  S
C1154      C1155   1.405       .  A
C1154      H1159   1.083       .  S
C1155      C1156   1.405       .  A
C1156      H1160   1.083       .  S
C1161      C1162   1.405       .  A
C1161      C1166   1.398       .  A
C1161      H1167   1.083       .  S
C1162      C1163   1.405       .  A
C1163      C1164   1.398       .  A
C1163      H1168   1.083       .  S
C1164      C1165   1.405       .  A
C1164      H1169   1.083       .  S
C1165      C1166   1.405       .  A
C1166      H1170   1.083       .  S
C1171      C1172   1.405       .  A
C1171      C1176   1.398       .  A
C1171      H1177   1.083       .  S
C1172      C1173   1.405       .  A
C1173      C1174   1.398       .  A
C1173      H1178   1.083       .  S
C1174      C1175   1.405       .  A
C1174      H1179   1.083       .  S
C1175      C1176   1.405       .  A
C1176      H1180   1.083       .  S
C1181      C1182   1.405       .  A
C1181      C1186   1.398       .  A
C1181      H1187   1.083       .  S
C1182      C1183   1.405       .  A
C1183      C1184   1.398       .  A
C1183      H1188   1.083       .  S
C1184      C1185   1.405       .  A
C1184      H1189   1.083       .  S
C1185      C1186   1.405       .  A
C1186      H1190   1.083       .  S
N1191      N1192   1.320       .  A
N1191      N1197   1.315       .  A
N1192      C1199   1.354       .  A
N1193      N1195   1.315       .  A
N1193      N1194   1.320       .  A
N1194      C1200   1.353       .  A
N1195      N1196   1.320       .  A
N1196      C1200   1.354       .  A
N1197      N1198   1.320       .  A
N1197     Mn1209   2.201   1_655  S
N1198      C1199   1.354       .  A
C1199      C1355   1.478       .  S
C1200      C1302   1.478       .  S
N1201      N1207   1.315       .  A
N1201      N1202   1.320       .  A
N1202      C1210   1.354       .  A
N1203      N1204   1.320       .  A
N1203      N1205   1.315       .  A
N1204      C1211   1.354       .  A
N1205      N1206   1.320       .  A
N1206      C1211   1.354       .  A
N1207      N1208   1.320       .  A
N1208      C1210   1.354       .  A
C1210      C1345   1.478       .  S
C1211      C1322   1.478       .  S
N1212      N1213   1.320       .  A
N1212      N1218   1.315       .  A
N1212     Mn1220   2.202       .  S
N1213      C1221   1.354       .  A
N1214      N1216   1.315       .  A
N1214      N1215   1.320       .  A
N1215      C1222   1.353       .  A
N1216      N1217   1.320       .  A
N1217      C1222   1.354       .  A
N1218      N1219   1.320       .  A
N1218     Mn1232   2.202       .  S
N1219      C1221   1.354       .  A
Mn1220    Cl1233   2.547       .  S
C1221      C1282   1.478       .  S
C1222      C1312   1.478       .  S
N1223      N1224   1.320       .  A
N1223      N1229   1.315       .  A
N1224      C1234   1.354       .  A
N1225      N1226   1.320       .  A
N1225      N1227   1.315       .  A
N1226      C1235   1.354       .  A
N1227      N1228   1.320       .  A
N1227     Mn1231   2.202       .  S
N1228      C1235   1.354       .  A
N1229      N1230   1.320       .  A
N1230      C1234   1.353       .  A
Mn1232    Cl1233   2.547       .  S
C1234      C1335   1.478       .  S
C1235      C1292   1.478       .  S
N1236      N1237   1.320       .  A
N1236      N1242   1.315       .  A
N1236     Mn1265   2.202       .  S
N1237      C1244   1.354       .  A
N1238      N1240   1.315       .  A
N1238      N1239   1.320       .  A
N1238     Mn1254   2.202       .  S
N1239      C1245   1.354       .  A
N1240      N1241   1.320       .  A
N1240     Mn1265   2.202       .  S
N1241      C1245   1.354       .  A
N1242      N1243   1.320       .  A
N1242     Mn1254   2.202       .  S
N1243      C1244   1.354       .  A
C1244      C1325   1.478       .  S
C1245      C1342   1.478       .  S
N1246      N1252   1.315       .  A
N1246      N1247   1.320       .  A
N1246     Mn1276   2.202       .  S
N1247      C1255   1.354       .  A
N1248      N1249   1.320       .  A
N1248      N1250   1.315       .  A
N1248     Mn1254   2.201       .  S
N1249      C1256   1.354       .  A
N1250      N1251   1.320       .  A
N1250     Mn1276   2.202       .  S
N1251      C1256   1.354       .  A
N1252      N1253   1.320       .  A
N1252     Mn1254   2.202       .  S
N1253      C1255   1.353       .  A
Mn1254    Cl1278   2.546       .  S
C1255      C1305   1.478       .  S
C1256      C1352   1.478       .  S
N1257      N1258   1.320       .  A
N1257      N1263   1.315       .  A
N1257     Mn1265   2.202       .  S
N1258      C1266   1.354       .  A
N1259      N1261   1.315       .  A
N1259      N1260   1.320       .  A
N1259     Mn1277   2.201       .  S
N1260      C1267   1.353       .  A
N1261      N1262   1.320       .  A
N1261     Mn1265   2.202       .  S
N1262      C1267   1.354       .  A
N1263      N1264   1.320       .  A
N1263     Mn1277   2.201       .  S
N1264      C1266   1.354       .  A
Mn1265    Cl1278   2.547       .  S
C1266      C1295   1.478       .  S
C1267      C1332   1.478       .  S
N1268      N1269   1.320       .  A
N1268      N1274   1.315       .  A
N1268     Mn1276   2.202       .  S
N1269      C1279   1.354       .  A
N1270      N1271   1.320       .  A
N1270      N1272   1.315       .  A
N1270     Mn1277   2.202       .  S
N1271      C1280   1.353       .  A
N1272      N1273   1.320       .  A
N1272     Mn1276   2.202       .  S
N1273      C1280   1.354       .  A
N1274      N1275   1.320       .  A
N1274     Mn1277   2.201       .  S
N1275      C1279   1.353       .  A
Mn1276    Cl1278   2.547       .  S
Mn1277    Cl1278   2.547       .  S
C1279      C1315   1.478       .  S
C1280      C1285   1.478       .  S
C1281      C1282   1.405       .  A
C1281      C1286   1.398       .  A
C1281      H1287   1.083       .  S
C1282      C1283   1.405       .  A
C1283      C1284   1.398       .  A
C1283      H1288   1.083       .  S
C1284      C1285   1.405       .  A
C1284      H1289   1.083       .  S
C1285      C1286   1.405       .  A
C1286      H1290   1.083       .  S
C1291      C1292   1.405       .  A
C1291      C1296   1.398       .  A
C1291      H1297   1.083       .  S
C1292      C1293   1.405       .  A
C1293      C1294   1.398       .  A
C1293      H1298   1.083       .  S
C1294      C1295   1.405       .  A
C1294      H1299   1.083       .  S
C1295      C1296   1.405       .  A
C1296      H1300   1.083       .  S
C1301      C1302   1.405       .  A
C1301      C1306   1.398       .  A
C1301      H1307   1.083       .  S
C1302      C1303   1.405       .  A
C1303      C1304   1.398       .  A
C1303      H1308   1.083       .  S
C1304      C1305   1.405       .  A
C1304      H1309   1.083       .  S
C1305      C1306   1.405       .  A
C1306      H1310   1.083       .  S
C1311      C1312   1.405       .  A
C1311      C1316   1.398       .  A
C1311      H1317   1.083       .  S
C1312      C1313   1.405       .  A
C1313      C1314   1.398       .  A
C1313      H1318   1.083       .  S
C1314      C1315   1.405       .  A
C1314      H1319   1.083       .  S
C1315      C1316   1.405       .  A
C1316      H1320   1.083       .  S
C1321      C1322   1.405       .  A
C1321      C1326   1.398       .  A
C1321      H1327   1.083       .  S
C1322      C1323   1.405       .  A
C1323      C1324   1.398       .  A
C1323      H1328   1.083       .  S
C1324      C1325   1.405       .  A
C1324      H1329   1.083       .  S
C1325      C1326   1.405       .  A
C1326      H1330   1.083       .  S
C1331      C1332   1.405       .  A
C1331      C1336   1.398       .  A
C1331      H1337   1.083       .  S
C1332      C1333   1.405       .  A
C1333      C1334   1.398       .  A
C1333      H1338   1.083       .  S
C1334      C1335   1.405       .  A
C1334      H1339   1.083       .  S
C1335      C1336   1.405       .  A
C1336      H1340   1.083       .  S
C1341      C1342   1.405       .  A
C1341      C1346   1.398       .  A
C1341      H1347   1.083       .  S
C1342      C1343   1.405       .  A
C1343      C1344   1.398       .  A
C1343      H1348   1.083       .  S
C1344      C1345   1.405       .  A
C1344      H1349   1.083       .  S
C1345      C1346   1.405       .  A
C1346      H1350   1.083       .  S
C1351      C1352   1.405       .  A
C1351      C1356   1.398       .  A
C1351      H1357   1.083       .  S
C1352      C1353   1.405       .  A
C1353      C1354   1.398       .  A
C1353      H1358   1.083       .  S
C1354      C1355   1.405       .  A
C1354      H1359   1.083       .  S
C1355      C1356   1.405       .  A
C1356      H1360   1.083       .  S
