geometry optimzed in LAMMPS
_audit_creation_date              2020-11-30 
_audit_creation_method            'lammps2cif' 
_symmetry_space_group_name_H-M    'P1' 
_symmetry_Int_Tables_number       1 
_symmetry_cell_setting            triclinic 
loop_ 
_symmetry_equiv_pos_as_xyz 
  x,y,z 
_cell_length_a                    50.8247405 
_cell_length_b                    50.7851363843869 
_cell_length_c                    50.870159258701044 
_cell_angle_alpha                 90.00250869940375 
_cell_angle_beta                  90.12052015045136 
_cell_angle_gamma                 90.11562716383354 
loop_ 
_atom_site_label 
_atom_site_type_symbol 
_atom_site_fract_x 
_atom_site_fract_y 
_atom_site_fract_z 
_atom_site_charge 
O1          O  0.29475428  0.75198109  0.48001875    -0.78300
C2          C  0.30807063  0.70305186  0.54886699     0.82700
O3          O  0.27278534  0.65440004  0.47407220    -0.79400
O4          O  0.22128131  0.69073498  0.55257832    -0.80900
O5          O  0.21343116  0.76084391  0.51042241    -0.80700
O6          O  0.25549314  0.76271086  0.46353087    -0.79300
Zn7        Zn  0.28922357  0.71520165  0.49347145     1.55700
O8          O  0.23727020  0.75396346  0.54667062    -0.80700
Cd9        Cd  0.23119762  0.73668776  0.48293061     1.59700
Cd10       Cd  0.24145566  0.67429765  0.49215135     1.59600
O11         O  0.20404234  0.71901423  0.45722383    -0.80700
O12         O  0.25306154  0.71032480  0.50150045    -1.91200
Cd13       Cd  0.24992926  0.71583446  0.53951360     1.59900
O14         O  0.21183904  0.67636019  0.46415524    -0.80700
O15         O  0.28498574  0.70583390  0.55830672    -0.79300
C16         C  0.29206613  0.66524880  0.46200786     0.83200
C17         C  0.27979819  0.76768749  0.46738394     0.82800
O18         O  0.31271717  0.70718053  0.52461432    -0.78300
C19         C  0.22076770  0.76762715  0.53348896     0.83700
O20         O  0.29867019  0.68914466  0.46587398    -0.78400
C21         C  0.19920273  0.69471756  0.45261723     0.83800
C22         C  0.21376621  0.66793922  0.54527186     0.84100
O23         O  0.22279814  0.65700233  0.52447560    -0.80800
O24         O  0.80985312  0.70652562  0.97542559    -0.78300
C25         C  0.78064950  0.76922578  0.03108707     0.82700
O26         O  0.77037318  0.65599425  0.02749628    -0.79400
O27         O  0.70437405  0.72043233  0.04399053    -0.80900
O28         O  0.73186882  0.75477943  0.95396652    -0.80700
O29         O  0.78234930  0.70861505  0.94144677    -0.79300
Zn30       Zn  0.78727868  0.71569836  0.00630032     1.55700
O31         O  0.71086737  0.76134599  0.99180235    -0.80700
Cd32       Cd  0.74715385  0.71727875  0.96055830     1.59700
Cd33       Cd  0.73934539  0.67504135  0.00776095     1.59600
O34         O  0.72091602  0.69024700  0.94634569    -0.80700
O35         O  0.75101435  0.71120457  0.99847049    -1.91200
Cd36       Cd  0.73086986  0.73803801  0.01805108     1.59900
O37         O  0.72198519  0.65659509  0.97467387    -0.80700
O38         O  0.75632612  0.76490484  0.03559893    -0.79300
C39         C  0.79020397  0.66662299  0.03899625     0.83200
C40         C  0.80510852  0.70395498  0.95101413     0.82800
O41         O  0.79455037  0.75255491  0.01855904    -0.78300
C42         C  0.71595180  0.76805779  0.96822366     0.83700
O43         O  0.79693732  0.69027530  0.03409117    -0.78400
C44         C  0.71466307  0.66682736  0.95279824     0.83800
C45         C  0.69851846  0.69624105  0.04785330     0.84100
O46         O  0.70985472  0.67764328  0.03547069    -0.80800
O47         O  0.20214060  0.53269993  0.18946550    -0.78300
C48         C  0.26286761  0.47361652  0.21930345     0.82700
O49         O  0.15158060  0.47937218  0.23071148    -0.79400
O50         O  0.21605310  0.46356986  0.29627872    -0.80900
O51         O  0.25158094  0.55272658  0.26523874    -0.80700
O52         O  0.20307720  0.56615348  0.21761931    -0.79300
Zn53       Zn  0.21091188  0.50109218  0.21196379     1.55700
O54         O  0.25844381  0.51483512  0.28649811    -0.80700
Cd55       Cd  0.21338009  0.54651597  0.25213754     1.59700
Cd56       Cd  0.17127457  0.49988906  0.26064799     1.59600
O57         O  0.18832992  0.56033781  0.28032497    -0.80700
O58         O  0.20703465  0.50856854  0.24829205    -1.91200
Cd59       Cd  0.23339969  0.48845197  0.26858871     1.59900
O60         O  0.15360793  0.53361743  0.27625010    -0.80700
O61         O  0.25794927  0.46844392  0.24331696    -0.79300
C62         C  0.16134332  0.46842551  0.21024995     0.83200
C63         C  0.19887247  0.55701912  0.19461175     0.82800
O64         O  0.24753441  0.48767240  0.20524276    -0.78300
C65         C  0.26510128  0.53842283  0.28089661     0.83700
O66         O  0.18459130  0.47369494  0.20249245    -0.78400
C67         C  0.16463280  0.55427557  0.28570530     0.83800
C68         C  0.19203323  0.46130078  0.30328079     0.84100
O69         O  0.17366084  0.47414199  0.29204412    -0.80800
O70         O  0.52580107  0.19606225  0.19730957    -0.78300
C71         C  0.46831743  0.22478413  0.25905766     0.82700
O72         O  0.47116461  0.23217821  0.14648663    -0.79400
O73         O  0.45632535  0.30112464  0.21102504    -0.80900
O74         O  0.54660844  0.27358928  0.24294959    -0.80700
O75         O  0.55866871  0.22492838  0.19571642    -0.79300
Zn76       Zn  0.49362469  0.21705451  0.20595174     1.55700
O77         O  0.50861231  0.29331309  0.25210984    -0.80700
Cd78       Cd  0.53857840  0.25939839  0.20529842     1.59700
Cd79       Cd  0.48958713  0.26386905  0.16528710     1.59600
O80         O  0.54927698  0.28778943  0.17858303    -0.80700
O81         O  0.50055608  0.25349917  0.20113743    -1.91200
Cd82       Cd  0.48196409  0.27422756  0.22819253     1.59900
O83         O  0.52066234  0.28238359  0.14559039    -0.80700
O84         O  0.46380566  0.24902692  0.25436808    -0.79300
C85         C  0.46087893  0.21161049  0.15678595     0.83200
C86         C  0.54988166  0.20148326  0.19306160     0.82800
O87         O  0.48119447  0.21056935  0.24289092    -0.78300
C88         C  0.53256583  0.28839463  0.25763970     0.83700
O89         O  0.46615456  0.20500320  0.18038277    -0.78400
C90         C  0.54135813  0.29298774  0.15535798     0.83800
C91         C  0.45072182  0.30552455  0.18692600     0.84100
O92         O  0.46135020  0.29267183  0.16826688    -0.80800
O93         O  0.31252452  0.21414736  0.47285925    -0.78300
C94         C  0.28168574  0.27455382  0.53112756     0.82700
O95         O  0.27562288  0.16134628  0.52485266    -0.79400
O96         O  0.20584376  0.22364687  0.54368531    -0.80900
O97         O  0.23586176  0.25921952  0.45462108    -0.80700
O98         O  0.28315726  0.21090251  0.44055291    -0.79300
Zn99       Zn  0.29029847  0.22169629  0.50491266     1.55700
O100        O  0.21282749  0.26449673  0.49163864    -0.80700
Cd101      Cd  0.24891749  0.22114275  0.46076180     1.59700
Cd102      Cd  0.24325862  0.18012715  0.50833141     1.59600
O103        O  0.21965296  0.19594402  0.44894134    -0.80700
O104        O  0.25393452  0.21611422  0.49860206    -1.91200
Cd105      Cd  0.23277943  0.24201927  0.51834381     1.59900
O106        O  0.22403510  0.16215426  0.47667881    -0.80700
O107        O  0.25751333  0.26964960  0.53599176    -0.79300
C108        C  0.29558571  0.17197568  0.53606583     0.83200
C109        C  0.30675140  0.20906819  0.44902123     0.82800
O110        O  0.29579651  0.25839651  0.51814032    -0.78300
C111        C  0.21917893  0.27180304  0.46853685     0.83700
O112        O  0.30172917  0.19591473  0.53190457    -0.78400
C113        C  0.21357204  0.17277001  0.45636671     0.83800
C114        C  0.20179814  0.19926518  0.54858006     0.84100
O115        O  0.21502169  0.18110501  0.53754339    -0.80800
O116        O  0.74420264  0.52728028  0.20113681    -0.78300
C117        C  0.69476619  0.45836040  0.19127523     0.82700
O118        O  0.64850654  0.53752283  0.22679427    -0.79400
O119        O  0.68530378  0.45726093  0.27760943    -0.80900
O120        O  0.75604780  0.50139803  0.28300258    -0.80700
O121        O  0.75517480  0.54670191  0.23900166    -0.79300
Zn122      Zn  0.70721816  0.51476454  0.20802339     1.55700
O123        O  0.74836459  0.46361769  0.26189939    -0.80700
Cd124      Cd  0.73047537  0.52762742  0.26506437     1.59700
Cd125      Cd  0.66806941  0.51702665  0.25686494     1.59600
O126        O  0.71292042  0.55267095  0.29298923    -0.80700
O127        O  0.70378724  0.50778725  0.24458078    -1.91200
Cd128      Cd  0.71013026  0.46979478  0.24857202     1.59900
O129        O  0.67037082  0.54338194  0.28769817    -0.80700
O130        O  0.69992342  0.44929473  0.21415852    -0.79300
C131        C  0.65836754  0.54811467  0.20617161     0.83200
C132        C  0.76006188  0.54098741  0.21504571     0.82800
O133        O  0.69765218  0.48278907  0.18640909    -0.78300
C134        C  0.76242009  0.47776528  0.27732741     0.83700
O135        O  0.68130465  0.54249495  0.19789034    -0.78400
C136        C  0.68879390  0.55554843  0.29961055     0.83800
C137        C  0.66211004  0.46392101  0.28427935     0.84100
O138        O  0.65064514  0.48407098  0.27435293    -0.80800
O139        O  0.01684036  0.30334858  0.25654986    -0.78300
C140        C  0.94753021  0.31167451  0.30566632     0.82700
O141        O  0.02696251  0.28121897  0.35362098    -0.79400
O142        O  0.94923298  0.22524775  0.31711258    -0.80900
O143        O  0.99378458  0.22208273  0.24610240    -0.80700
O144        O  0.03890025  0.26630010  0.24807080    -0.79300
Zn145      Zn  0.00436182  0.29698949  0.29375687     1.55700
O146        O  0.95560849  0.24205240  0.25410871    -0.80700
Cd147      Cd  0.01916646  0.24025937  0.27229180     1.59700
Cd148      Cd  0.00781085  0.24938789  0.33474556     1.59600
O149        O  0.04387088  0.21282542  0.29050659    -0.80700
O150        O  0.99865940  0.26036836  0.29856210    -1.91200
Cd151      Cd  0.96107554  0.25464439  0.29233258     1.59900
O152        O  0.03516194  0.21946523  0.33296679    -0.80700
O153        O  0.93958705  0.28816346  0.30172211    -0.79300
C154        C  0.03718179  0.30190609  0.34325738     0.83200
C155        C  0.03208768  0.28970931  0.24203488     0.82800
O156        O  0.97162733  0.31782056  0.30233831    -0.78300
C157        C  0.97013823  0.22753275  0.23967324     0.83700
O158        O  0.03155909  0.30868003  0.31975706    -0.78400
C159        C  0.04707689  0.20706584  0.31478351     0.83800
C160        C  0.95576196  0.21914607  0.34050575     0.84100
O161        O  0.97533883  0.23022419  0.35208510    -0.80800
O162        O  0.80261117  0.03202062  0.30711445    -0.78300
C163        C  0.74104541  0.97222804  0.28144781     0.82700
O164        O  0.85119171  0.97759725  0.26755377    -0.79400
O165        O  0.78672689  0.96117070  0.20275087    -0.80900
O166        O  0.75109748  0.05012202  0.23250912    -0.80700
O167        O  0.79946910  0.06548062  0.27944054    -0.79300
Zn168      Zn  0.79238006  0.00066903  0.28569599     1.55700
O169        O  0.74279978  0.01135197  0.21361138    -0.80700
Cd170      Cd  0.78951756  0.04497816  0.24514347     1.59700
Cd171      Cd  0.83179454  0.99836969  0.23751126     1.59600
O172        O  0.81462275  0.05826155  0.21657843    -0.80700
O173        O  0.79592023  0.00718077  0.24946734    -1.91200
Cd174      Cd  0.76923226  0.98586622  0.23076270     1.59900
O175        O  0.84946183  0.03184158  0.22095682    -0.80700
O176        O  0.74578003  0.96591670  0.25762590    -0.79300
C177        C  0.84030771  0.96658695  0.28743462     0.83200
C178        C  0.80508577  0.05645410  0.30218601     0.82800
O179        O  0.75613119  0.98786414  0.29405717    -0.78300
C180        C  0.73644421  0.03513440  0.21850183     0.83700
O181        O  0.81739081  0.97291941  0.29500708    -0.78400
C182        C  0.83828380  0.05217787  0.21103984     0.83800
C183        C  0.81075296  0.95903505  0.19559057     0.84100
O184        O  0.82909702  0.97213102  0.20667132    -0.80800
O185        O  0.70459520  0.76360778  0.48165806    -0.78300
C186        C  0.69395921  0.81071290  0.55244116     0.82700
O187        O  0.72743274  0.86012526  0.47519306    -0.79400
O188        O  0.78032726  0.82585486  0.55417134    -0.80900
O189        O  0.78494975  0.75242935  0.50926121    -0.80700
O190        O  0.74268432  0.75461291  0.46179753    -0.79300
Zn191      Zn  0.71078053  0.79992217  0.49623743     1.55700
O192        O  0.76616180  0.76133952  0.54782997    -0.80700
Cd193      Cd  0.76805244  0.77851945  0.48320589     1.59700
Cd194      Cd  0.75871059  0.84083633  0.49377124     1.59600
O195        O  0.79684893  0.79633434  0.45966321    -0.80700
O196        O  0.74738601  0.80478307  0.50332941    -1.91200
Cd197      Cd  0.75230844  0.79938242  0.54137069     1.59900
O198        O  0.78875619  0.83889592  0.46640509    -0.80700
O199        O  0.71739501  0.80819949  0.56120794    -0.79300
C200        C  0.70649719  0.85039355  0.46502319     0.83200
C201        C  0.71869729  0.74913806  0.46683644     0.82800
O202        O  0.68855552  0.80668555  0.52832067    -0.78300
C203        C  0.78023144  0.74652560  0.53315754     0.83700
O204        O  0.69933354  0.82685922  0.47004195    -0.78400
C205        C  0.80193990  0.82062697  0.45539385     0.83800
C206        C  0.78580720  0.84933813  0.54709956     0.84100
O207        O  0.77602350  0.85949843  0.52622923    -0.80800
C208        C  0.91987857  0.84657231  0.34994625     0.86700
C209        C  0.93763354  0.86283410  0.36874197    -0.53600
C210        C  0.92456220  0.88184137  0.38271652     0.09600
C211        C  0.89473935  0.88232237  0.37704053     0.20500
C212        C  0.89865796  0.83535329  0.36843088    -0.54300
C213        C  0.88500953  0.85386589  0.38261366     0.09700
C214        C  0.90587752  0.86710930  0.33322346    -0.53800
C215        C  0.89300842  0.88575471  0.34698567     0.10300
H216        H  0.95857400  0.85986592  0.37120488     0.14800
H217        H  0.88447853  0.89764770  0.38841510     0.00500
H218        H  0.89480716  0.81440224  0.37000315     0.15100
H219        H  0.90648558  0.86721412  0.31184640     0.14900
C220        C  0.84212130  0.15388921  0.42170657     0.86700
C221        C  0.82917537  0.13683389  0.40045272    -0.53600
C222        C  0.84624469  0.12147762  0.38686502     0.09600
C223        C  0.87497051  0.12379189  0.39619277     0.20500
C224        C  0.85701208  0.13404844  0.43943572    -0.54300
C225        C  0.87418838  0.11796285  0.42611714     0.09700
C226        C  0.86435715  0.16877197  0.40799125    -0.53800
C227        C  0.88163451  0.15334310  0.39485718     0.10300
H228        H  0.80822634  0.13720505  0.39616755     0.14800
H229        H  0.88842587  0.11125686  0.38451277     0.00500
H230        H  0.85610551  0.13416004  0.46060532     0.15100
H231        H  0.86647748  0.19006497  0.40887441     0.14900
C232        C  0.85143989  0.93241005  0.66213278     0.86700
C233        C  0.86793852  0.91030305  0.67503261    -0.53600
C234        C  0.88285215  0.89599053  0.65779610     0.09600
C235        C  0.87973548  0.90518702  0.62895563     0.20500
C236        C  0.87213328  0.94889588  0.64728865    -0.54300
C237        C  0.88668862  0.93478022  0.62959562     0.09700
C238        C  0.83556048  0.91840700  0.64066783    -0.53800
C239        C  0.85002185  0.90443720  0.62319019     0.10300
H240        H  0.86913867  0.90670650  0.69594708     0.14800
H241        H  0.89131781  0.89367022  0.61454555     0.00500
H242        H  0.87424404  0.97002367  0.64971449     0.15100
H243        H  0.81424557  0.91965804  0.63929030     0.14900
C244        C  0.15209558  0.08831618  0.34120295     0.86700
C245        C  0.13182953  0.07088369  0.35557553    -0.53600
C246        C  0.11710491  0.08393157  0.37394013     0.09600
C247        C  0.12274254  0.11392047  0.37468212     0.20500
C248        C  0.13516849  0.10976456  0.32859466    -0.54300
C249        C  0.11996876  0.12378083  0.34579053     0.09700
C250        C  0.16732994  0.10177259  0.36354567    -0.53800
C251        C  0.15222306  0.11519341  0.38090682     0.10300
H252        H  0.12923340  0.05006906  0.35225186     0.14800
H253        H  0.11093608  0.12496609  0.38928087     0.00500
H254        H  0.13462269  0.11244551  0.30747954     0.15100
H255        H  0.18859515  0.10065706  0.36554339     0.14900
C256        C  0.08279714  0.16963628  0.64877141     0.86700
C257        C  0.10543089  0.18135680  0.63271421    -0.53600
C258        C  0.11911395  0.16335178  0.61837499     0.09600
C259        C  0.10823007  0.13489964  0.62073917     0.20500
C260        C  0.06567104  0.15554682  0.62778680    -0.54300
C261        C  0.07891638  0.13719303  0.61314903     0.09700
C262        C  0.09501403  0.14724679  0.66471037    -0.53800
C263        C  0.10749532  0.12848767  0.65038985     0.10300
H264        H  0.11010356  0.20223677  0.63244371     0.14800
H265        H  0.11919973  0.12017442  0.60912291     0.00500
H266        H  0.04508592  0.15946518  0.62417807     0.15100
H267        H  0.09381939  0.14659931  0.68599676     0.14900
C268        C  0.16220890  0.85289654  0.58277820     0.86700
C269        C  0.14622487  0.87197478  0.56532596    -0.53600
C270        C  0.12854144  0.88696899  0.57893801     0.09600
C271        C  0.12852744  0.88195023  0.60880831     0.20500
C272        C  0.17491875  0.87089581  0.60346216    -0.54300
C273        C  0.15751471  0.88598885  0.61719779     0.09700
C274        C  0.14096051  0.83732868  0.59736389    -0.53800
C275        C  0.12340379  0.85211026  0.61109258     0.10300
H276        H  0.14786037  0.87373841  0.54421441     0.14800
H277        H  0.11436436  0.89427837  0.61991944     0.00500
H278        H  0.19600680  0.87170117  0.60690699     0.15100
H279        H  0.13972025  0.81596929  0.59655242     0.14900
O280        O  0.02679212  0.02703425  0.44500416    -0.78300
C281        C  0.97974587  0.95292116  0.45409694     0.82700
O282        O  0.95413955  0.04824522  0.50014291    -0.79400
O283        O  0.97067956  0.96364798  0.53869860    -0.80900
O284        O  0.06217854  0.98239085  0.52396926    -0.80700
O285        O  0.06028278  0.02642692  0.47336587    -0.79300
Zn286      Zn  0.99621121  0.01025242  0.46408014     1.55700
O287        O  0.03275657  0.94974032  0.52373915    -0.80700
Cd288      Cd  0.04203395  0.01369968  0.50739791     1.59700
Cd289      Cd  0.98128178  0.02785625  0.52363772     1.59600
O290        O  0.04508274  0.04484585  0.53300148    -0.80700
O291        O  0.00426310  0.00485722  0.50091148    -1.91200
Cd292      Cd  0.99864018  0.96687825  0.50957381     1.59900
O293        O  0.00410550  0.05548679  0.54411472    -0.80700
O294        O  0.98481009  0.94564277  0.47753152    -0.79300
C295        C  0.95183459  0.04908928  0.47513522     0.83200
C296        C  0.05064275  0.03206378  0.45093713     0.82800
O297        O  0.98398021  0.97651123  0.44652810    -0.78300
C298        C  0.05563786  0.95867253  0.52898615     0.83700
O299        O  0.96657267  0.03549229  0.46027625    -0.78400
C300        C  0.02893477  0.05926836  0.54553755     0.83800
C301        C  0.95804383  0.97985205  0.55301758     0.84100
O302        O  0.96059263  0.00476698  0.55063340    -0.80800
O303        O  0.69091308  0.30095529  0.46887329    -0.78300
C304        C  0.71868679  0.23951070  0.52923683     0.82700
O305        O  0.72518892  0.35152225  0.52347021    -0.79400
O306        O  0.79468554  0.28941648  0.54227873    -0.80900
O307        O  0.76856124  0.25478289  0.45238960    -0.80700
O308        O  0.72044821  0.30101316  0.43670358    -0.79300
Zn309      Zn  0.71128873  0.29148963  0.50158765     1.55700
O310        O  0.78715020  0.24645178  0.49127946    -0.80700
Cd311      Cd  0.75434132  0.29240849  0.45833081     1.59700
Cd312      Cd  0.75767231  0.33336566  0.50622841     1.59600
O313        O  0.78267773  0.31918061  0.44718470    -0.80700
O314        O  0.74778861  0.29717037  0.49610592    -1.91200
Cd315      Cd  0.76791946  0.27110750  0.51684767     1.59900
O316        O  0.77592659  0.35271166  0.47475288    -0.80700
O317        O  0.74215290  0.24567091  0.53588220    -0.79300
C318        C  0.70485821  0.34075053  0.53377748     0.83200
C319        C  0.69701179  0.30472713  0.44487318     0.82800
O320        O  0.70502107  0.25398691  0.51388356    -0.78300
C321        C  0.78281334  0.24042480  0.46733463     0.83700
O322        O  0.69888460  0.31686392  0.52891745    -0.78400
C323        C  0.78716126  0.34277069  0.45455231     0.83800
C324        C  0.79913063  0.31379937  0.54674881     0.84100
O325        O  0.78628664  0.33188924  0.53504845    -0.80800
O326        O  0.02346833  0.69579309  0.70101884    -0.78300
C327        C  0.96495250  0.72314760  0.76270309     0.82700
O328        O  0.96791741  0.73455251  0.65154585    -0.79400
O329        O  0.95154716  0.80130558  0.71556558    -0.80900
O330        O  0.04057179  0.77137824  0.75122564    -0.80700
O331        O  0.05631379  0.72407520  0.70476235    -0.79300
Zn332      Zn  0.99167948  0.71729815  0.71052134     1.55700
O333        O  0.00250193  0.79163561  0.75926370    -0.80700
Cd334      Cd  0.03496011  0.75793424  0.71346310     1.59700
Cd335      Cd  0.98833056  0.76591189  0.67041520     1.59600
O336        O  0.04880072  0.78553095  0.68821524    -0.80700
O337        O  0.99731166  0.75392466  0.70642638    -1.91200
Cd338      Cd  0.97676035  0.77351351  0.73319050     1.59900
O339        O  0.02247019  0.78246691  0.65300360    -0.80700
O340        O  0.95795535  0.74671299  0.75742027    -0.79300
C341        C  0.95808303  0.71372374  0.66207341     0.83200
C342        C  0.04785624  0.70107579  0.69926895     0.82800
O343        O  0.97971295  0.70994494  0.74736200    -0.78300
C344        C  0.02629311  0.78636868  0.76539867     0.83700
O345        O  0.96448823  0.70655881  0.68514518    -0.78400
C346        C  0.04351073  0.79079582  0.66434039     0.83800
C347        C  0.94928844  0.80844935  0.69151955     0.84100
O348        O  0.96208496  0.79710989  0.67316160    -0.80800
C349        C  0.15065938  0.58721415  0.66071599     0.86700
C350        C  0.13515689  0.61002170  0.67323140    -0.53600
C351        C  0.11976464  0.62359770  0.65611159     0.09600
C352        C  0.12068757  0.61304588  0.62766978     0.20500
C353        C  0.12888462  0.57026254  0.64788336    -0.54300
C354        C  0.11339841  0.58352340  0.63007585     0.09700
C355        C  0.16541942  0.59962146  0.63763623    -0.53800
C356        C  0.14998859  0.61280813  0.62027164     0.10300
H357        H  0.13430063  0.61424548  0.69407379     0.14800
H358        H  0.10863035  0.62441025  0.61349553     0.00500
H359        H  0.12627893  0.54948154  0.65212019     0.15100
H360        H  0.18662324  0.59817592  0.63526577     0.14900
C361        C  0.16149360  0.35866597  0.42171222     0.86700
C362        C  0.17468439  0.37623098  0.40080262    -0.53600
C363        C  0.15764640  0.39218723  0.38751713     0.09600
C364        C  0.12875089  0.38909943  0.39643349     0.20500
C365        C  0.14672659  0.37821274  0.43945859    -0.54300
C366        C  0.12935350  0.39419784  0.42647999     0.09700
C367        C  0.13999610  0.34392424  0.40656271    -0.53800
C368        C  0.12238605  0.35947582  0.39390532     0.10300
H369        H  0.19552564  0.37690381  0.39669858     0.14800
H370        H  0.11502986  0.40177447  0.38523465     0.00500
H371        H  0.14878701  0.37794366  0.46065605     0.15100
H372        H  0.13830383  0.32257853  0.40664144     0.14900
C373        C  0.83753335  0.65817352  0.57950699     0.86700
C374        C  0.85176893  0.63785103  0.56178315    -0.53600
C375        C  0.86864048  0.62157040  0.57520777     0.09600
C376        C  0.86965591  0.62694184  0.60501894     0.20500
C377        C  0.82412279  0.64124298  0.60059609    -0.54300
C378        C  0.84071234  0.62505710  0.61407652     0.09700
C379        C  0.86023243  0.67232620  0.59343537    -0.53800
C380        C  0.87705891  0.65630066  0.60653965     0.10300
H381        H  0.85005432  0.63667668  0.54061917     0.14800
H382        H  0.88339305  0.61396427  0.61598886     0.00500
H383        H  0.80313478  0.64197472  0.60452869     0.15100
H384        H  0.86305230  0.69353878  0.59263251     0.14900
C385        C  0.84677539  0.42951445  0.33897008     0.86700
C386        C  0.86733490  0.44689825  0.35339057    -0.53600
C387        C  0.88220906  0.43360111  0.37165120     0.09600
C388        C  0.87587882  0.40388271  0.37293522     0.20500
C389        C  0.86335805  0.40751213  0.32678524    -0.54300
C390        C  0.87841344  0.39401684  0.34436103     0.09700
C391        C  0.83135848  0.41648296  0.36139350    -0.53800
C392        C  0.84630336  0.40316929  0.37915704     0.10300
H393        H  0.87013176  0.46771567  0.35003380     0.14800
H394        H  0.88799655  0.39272390  0.38727663     0.00500
H395        H  0.86339183  0.40310980  0.30588499     0.15100
H396        H  0.81006068  0.41749790  0.36286571     0.14900
C397        C  0.91861989  0.34651556  0.64859507     0.86700
C398        C  0.89660612  0.33360356  0.63204803    -0.53600
C399        C  0.88157751  0.35091308  0.61788815     0.09600
C400        C  0.89032505  0.37986943  0.62161173     0.20500
C401        C  0.93433509  0.36238901  0.62809251    -0.54300
C402        C  0.91985863  0.38057679  0.61430753     0.09700
C403        C  0.90460806  0.36705526  0.66534641    -0.53800
C404        C  0.88999334  0.38443312  0.65153596     0.10300
H405        H  0.89330702  0.31260098  0.63082749     0.14800
H406        H  0.87821121  0.39366576  0.61018503     0.00500
H407        H  0.95535287  0.35997377  0.62545892     0.15100
H408        H  0.90626001  0.36793121  0.68664821     0.14900
C409        C  0.07761991  0.66838777  0.35106168     0.86700
C410        C  0.06166417  0.65235683  0.37126110    -0.53600
C411        C  0.07586977  0.63346458  0.38406612     0.09600
C412        C  0.10527268  0.63326366  0.37662314     0.20500
C413        C  0.10007351  0.68019969  0.36795442    -0.54300
C414        C  0.11464932  0.66193069  0.38158221     0.09700
C415        C  0.09119148  0.64808853  0.33357182    -0.53800
C416        C  0.10540696  0.62972082  0.34661722     0.10300
H417        H  0.04088800  0.65544620  0.37503521     0.14800
H418        H  0.11692856  0.61789859  0.38679572     0.00500
H419        H  0.10334794  0.70113337  0.37039728     0.15100
H420        H  0.08985802  0.64845416  0.31224059     0.14900
O421        O  0.01969424  0.56653508  0.47997808    -0.78300
C422        C  0.94631821  0.55465164  0.52535886     0.82700
O423        O  0.04276089  0.50750846  0.55066709    -0.79400
O424        O  0.95705248  0.47013547  0.53184063    -0.80900
O425        O  0.97730475  0.48586190  0.44210884    -0.80700
O426        O  0.01992836  0.53794290  0.44686819    -0.79300
Zn427      Zn  0.00407059  0.54577454  0.51043678     1.55700
O428        O  0.94390310  0.48638763  0.47038181    -0.80700
Cd429      Cd  0.00778815  0.50306498  0.46351184     1.59700
Cd430      Cd  0.02160527  0.48469789  0.52350826     1.59600
O431        O  0.03880371  0.47779187  0.46007734    -0.80700
O432        O  0.99897115  0.50872402  0.50111441    -1.91200
Cd433      Cd  0.96099679  0.49978044  0.50502145     1.59900
O434        O  0.04874329  0.46371062  0.50032445    -0.80700
O435        O  0.93983264  0.53110718  0.51963586    -0.79300
C436        C  0.04351404  0.53238272  0.55450749     0.83200
C437        C  0.02471139  0.56081735  0.45609457     0.82800
O438        O  0.96979364  0.56304279  0.52220688    -0.78300
C439        C  0.95337539  0.48104166  0.44783594     0.83700
O440        O  0.02969977  0.54814818  0.54069089    -0.78400
C441        C  0.05237358  0.46349682  0.47545552     0.83800
C442        C  0.97245187  0.45548043  0.54505726     0.84100
O443        O  0.99749792  0.45782211  0.54385604    -0.80800
C444        C  0.65856806  0.35465818  0.07536234     0.86700
C445        C  0.64476943  0.37515257  0.05780578    -0.53600
C446        C  0.62705429  0.39091113  0.07064537     0.09600
C447        C  0.62563762  0.38515862  0.10048855     0.20500
C448        C  0.67146383  0.37122839  0.09735462    -0.54300
C449        C  0.65433563  0.38717508  0.11049143     0.09700
C450        C  0.63640953  0.34002304  0.08959628    -0.53800
C451        C  0.61874811  0.35566430  0.10208251     0.10300
H452        H  0.64916671  0.37697275  0.03705029     0.14800
H453        H  0.61157510  0.39774486  0.11134954     0.00500
H454        H  0.69207635  0.37085840  0.10265984     0.15100
H455        H  0.63462429  0.31869143  0.08951945     0.14900
C456        C  0.57764957  0.67141087  0.14914361     0.86700
C457        C  0.59885885  0.68396763  0.13176037    -0.53600
C458        C  0.61240486  0.66651451  0.11653688     0.09600
C459        C  0.60338519  0.63767204  0.12009977     0.20500
C460        C  0.56012379  0.65602624  0.12961393    -0.54300
C461        C  0.57360315  0.63833727  0.11462401     0.09700
C462        C  0.59170424  0.64974106  0.16464909    -0.53800
C463        C  0.60541583  0.63206190  0.14990441     0.10300
H464        H  0.60316179  0.70490982  0.13202549     0.14800
H465        H  0.61429542  0.62363512  0.10751107     0.00500
H466        H  0.53903670  0.65790979  0.12756829     0.15100
H467        H  0.59027697  0.64830502  0.18591039     0.14900
C468        C  0.42256722  0.34788481  0.84819623     0.86700
C469        C  0.43955190  0.36490289  0.86709698    -0.53600
C470        C  0.42538985  0.38271229  0.88173223     0.09600
C471        C  0.39545982  0.38121739  0.87640223     0.20500
C472        C  0.40211793  0.33488379  0.86626422    -0.54300
C473        C  0.38779792  0.35209782  0.88106886     0.09700
C474        C  0.40747911  0.36837829  0.83216863    -0.53800
C475        C  0.39323333  0.38562933  0.84656788     0.10300
H476        H  0.46077670  0.36413731  0.86830726     0.14800
H477        H  0.38340734  0.39511061  0.88799909     0.00500
H478        H  0.39929308  0.31370269  0.86722023     0.15100
H479        H  0.40841252  0.36947710  0.81084170     0.14900
C480        C  0.33643943  0.65922015  0.92466342     0.86700
C481        C  0.32383263  0.64279551  0.90226844    -0.53600
C482        C  0.34109526  0.62703542  0.88892307     0.09600
C483        C  0.36971373  0.62963904  0.89892056     0.20500
C484        C  0.35019125  0.63829927  0.94177463    -0.54300
C485        C  0.36804855  0.62335764  0.92844503     0.09700
C486        C  0.35875492  0.67444083  0.91139573    -0.53800
C487        C  0.37612539  0.65923753  0.89812757     0.10300
H488        H  0.30313037  0.64292278  0.89739236     0.14800
H489        H  0.38420357  0.61731109  0.88823174     0.00500
H490        H  0.34673932  0.63582189  0.96267323     0.15100
H491        H  0.36063982  0.69575107  0.91235237     0.14900
C492        C  0.64784743  0.58330943  0.83713299     0.86700
C493        C  0.62812694  0.56662787  0.85307931    -0.53600
C494        C  0.61424857  0.58064844  0.87138570     0.09600
C495        C  0.62073595  0.61041251  0.87150691     0.20500
C496        C  0.63048478  0.60475179  0.82488019    -0.54300
C497        C  0.61646242  0.61917599  0.84264331     0.09700
C498        C  0.66446628  0.59719769  0.85803758    -0.53800
C499        C  0.65076136  0.61148158  0.87591532     0.10300
H500        H  0.62448176  0.54585750  0.85012503     0.14800
H501        H  0.60932943  0.62203414  0.88602034     0.00500
H502        H  0.62926413  0.60817259  0.80383371     0.15100
H503        H  0.68580445  0.59573782  0.85864065     0.14900
C504        C  0.35048322  0.42713550  0.16301121     0.86700
C505        C  0.36832670  0.40600571  0.17500586    -0.53600
C506        C  0.38331211  0.39270583  0.15713334     0.09600
C507        C  0.37921492  0.40220644  0.12842100     0.20500
C508        C  0.37002556  0.44498483  0.14792850    -0.54300
C509        C  0.38466284  0.43204718  0.12945573     0.09700
C510        C  0.33472258  0.41303727  0.14159055    -0.53800
C511        C  0.34937925  0.40056920  0.12312706     0.10300
H512        H  0.36881083  0.40169959  0.19588308     0.14800
H513        H  0.39124011  0.39162741  0.11360207     0.00500
H514        H  0.37288167  0.46579259  0.15155982     0.15100
H515        H  0.31335566  0.41347582  0.14079896     0.14900
O516        O  0.46831838  0.56384018  0.98039065    -0.78300
C517        C  0.52398203  0.56298412  0.04502577     0.82700
O518        O  0.54179827  0.51026728  0.95125547    -0.79400
O519        O  0.53903106  0.47962280  0.04191121    -0.80900
O520        O  0.44443355  0.48579486  0.03077607    -0.80700
O521        O  0.43871372  0.53156628  0.98264532    -0.79300
Zn522      Zn  0.50286196  0.54716239  0.99101299     1.55700
O523        O  0.47738410  0.48835645  0.05969328    -0.80700
Cd524      Cd  0.46061350  0.50005501  0.99604240     1.59700
Cd525      Cd  0.52114187  0.48705779  0.97810592     1.59600
O526        O  0.45730268  0.47097636  0.96794142    -0.80700
O527        O  0.49828385  0.51022381  0.00057934    -1.91200
Cd528      Cd  0.50782999  0.50508587  0.03831938     1.59900
O529        O  0.49833710  0.46004026  0.95690770    -0.80700
O530        O  0.51964833  0.54032519  0.05494738    -0.79300
C531        C  0.54151493  0.53500700  0.94666920     0.83200
C532        C  0.44488811  0.55532875  0.97744221     0.82800
O533        O  0.51874558  0.56797749  0.02102918    -0.78300
C534        C  0.45386613  0.48195096  0.05371874     0.83700
O535        O  0.52737566  0.55065269  0.96014450    -0.78400
C536        C  0.47346085  0.45708126  0.95478657     0.83800
C537        C  0.55258672  0.46594628  0.02597298     0.84100
O538        O  0.54813775  0.46642514  0.00123681    -0.80800
O539        O  0.30082295  0.48486991  0.68960152    -0.78300
C540        C  0.23901894  0.54244668  0.71903883     0.82700
O541        O  0.35077446  0.53728369  0.72894516    -0.79400
O542        O  0.28660805  0.55334217  0.79694076    -0.80900
O543        O  0.25077687  0.46421114  0.76537014    -0.80700
O544        O  0.29978398  0.45116838  0.71739058    -0.79300
Zn545      Zn  0.29136147  0.51614175  0.71200444     1.55700
O546        O  0.24397379  0.50183462  0.78706332    -0.80700
Cd547      Cd  0.28930834  0.47068147  0.75215166     1.59700
Cd548      Cd  0.33131722  0.51838850  0.75992355     1.59600
O549        O  0.31529086  0.45765084  0.78010663    -0.80700
O550        O  0.29541300  0.50874863  0.74837999    -1.91200
Cd551      Cd  0.26893741  0.52827800  0.76906924     1.59900
O552        O  0.34935875  0.48538219  0.77655452    -0.80700
O553        O  0.24365417  0.54724729  0.74326399    -0.79300
C554        C  0.34028308  0.54852527  0.70901474     0.83200
C555        C  0.30419672  0.46053073  0.69449940     0.82800
O556        O  0.25476877  0.52876619  0.70515563    -0.78300
C557        C  0.23704757  0.47844868  0.78093829     0.83700
O558        O  0.31668021  0.54410796  0.70194025    -0.78400
C559        C  0.33886870  0.46432354  0.78564029     0.83800
C560        C  0.31086487  0.55765068  0.80229256     0.84100
O561        O  0.32925209  0.54594842  0.78992830    -0.80800
C562        C  0.66160537  0.66249806  0.41766702     0.86700
C563        C  0.64632047  0.64248203  0.43481005    -0.53600
C564        C  0.62934512  0.62669123  0.42098465     0.09600
C565        C  0.62918810  0.63242094  0.39115528     0.20500
C566        C  0.67509626  0.64514070  0.39687046    -0.54300
C567        C  0.65833499  0.62958410  0.38241931     0.09700
C568        C  0.63993431  0.67735736  0.40312241    -0.53800
C569        C  0.62304353  0.66197286  0.38938190     0.10300
H570        H  0.64751953  0.64114569  0.45596518     0.14800
H571        H  0.61497613  0.62020731  0.37989601     0.00500
H572        H  0.69629880  0.64471940  0.39478384     0.15100
H573        H  0.63775243  0.69863552  0.40407569     0.14900
C574        C  0.65189552  0.42305595  0.65785392     0.86700
C575        C  0.63251344  0.44071044  0.64227422    -0.53600
C576        C  0.61704747  0.42730737  0.62471494     0.09600
C577        C  0.62224802  0.39742211  0.62432517     0.20500
C578        C  0.63404981  0.40242046  0.67061313    -0.54300
C579        C  0.61913294  0.38850376  0.65326016     0.09700
C580        C  0.66711617  0.40825636  0.63649601    -0.53800
C581        C  0.65188362  0.39563312  0.61834304     0.10300
H582        H  0.63071798  0.46182086  0.64424853     0.14800
H583        H  0.60969553  0.38649582  0.61015925     0.00500
H584        H  0.63354247  0.39873216  0.69164217     0.15100
H585        H  0.68846427  0.40829907  0.63567264     0.14900
C586        C  0.42452319  0.66611597  0.64969589     0.86700
C587        C  0.44257515  0.65008677  0.63120162    -0.53600
C588        C  0.42930772  0.63235693  0.61555709     0.09600
C589        C  0.39913642  0.63225343  0.62022438     0.20500
C590        C  0.40455790  0.67870050  0.63089445    -0.54300
C591        C  0.39074034  0.66123460  0.61592445     0.09700
C592        C  0.40946995  0.64509212  0.66492317    -0.53800
C593        C  0.39617456  0.62744831  0.64997694     0.10300
H594        H  0.46369299  0.65252708  0.62986365     0.14800
H595        H  0.38794459  0.61786270  0.60818038     0.00500
H596        H  0.40117913  0.69979609  0.62993059     0.15100
H597        H  0.40950470  0.64415777  0.68628737     0.14900
C598        C  0.35079480  0.58673259  0.34003698     0.86700
C599        C  0.36790909  0.60868610  0.32773830    -0.53600
C600        C  0.38283687  0.62249873  0.34548925     0.09600
C601        C  0.37933133  0.61286034  0.37415691     0.20500
C602        C  0.37082100  0.56966749  0.35503196    -0.54300
C603        C  0.38547073  0.58318044  0.37310848     0.09700
C604        C  0.33491273  0.60080872  0.36126195    -0.53800
C605        C  0.34950450  0.61420199  0.37912447     0.10300
H606        H  0.36888410  0.61310137  0.30697364     0.14800
H607        H  0.39124678  0.62362991  0.38898131     0.00500
H608        H  0.37292158  0.54860947  0.35199696     0.15100
H609        H  0.31355139  0.60004061  0.36225659     0.14900
C610        C  0.58118409  0.34674814  0.34430324     0.86700
C611        C  0.60260067  0.33317125  0.36061506    -0.53600
C612        C  0.61666726  0.34957803  0.37659776     0.09600
C613        C  0.60771165  0.37864312  0.37494182     0.20500
C614        C  0.56402100  0.36115696  0.36504385    -0.54300
C615        C  0.57800635  0.37800683  0.38098479     0.09700
C616        C  0.59499527  0.36930310  0.32994711    -0.53800
C617        C  0.60863330  0.38603115  0.34567835     0.10300
H618        H  0.60613024  0.31209962  0.35973052     0.14800
H619        H  0.61921044  0.39230873  0.38757310     0.00500
H620        H  0.54280237  0.36001094  0.36617705     0.15100
H621        H  0.59365010  0.37214038  0.30880195     0.14900
C622        C  0.34204641  0.36062058  0.57729962     0.86700
C623        C  0.32948871  0.37895069  0.59798603    -0.53600
C624        C  0.34716621  0.39233888  0.61329682     0.09600
C625        C  0.37616836  0.38646501  0.60630263     0.20500
C626        C  0.36002084  0.37927828  0.56159641    -0.54300
C627        C  0.37817783  0.39229296  0.57663798     0.09700
C628        C  0.36087696  0.34316898  0.59297168    -0.53800
C629        C  0.37859641  0.35632555  0.60814492     0.10300
H630        H  0.30856041  0.38206275  0.60027986     0.14800
H631        H  0.39076114  0.39736584  0.61843007     0.00500
H632        H  0.35876905  0.38189693  0.54045402     0.15100
H633        H  0.36052627  0.32180327  0.59168200     0.14900
O634        O  0.47622890  0.45238124  0.51966426    -0.78300
C635        C  0.53054588  0.45584920  0.45019780     0.82700
O636        O  0.55145543  0.50522553  0.54437042    -0.79400
O637        O  0.54049097  0.54234870  0.45528976    -0.80900
O638        O  0.44835902  0.52776899  0.46937542    -0.80700
O639        O  0.44700241  0.48477921  0.51996292    -0.79300
Zn640      Zn  0.50964294  0.46917069  0.50515648     1.55700
O641        O  0.47993838  0.52670685  0.43908016    -0.80700
Cd642      Cd  0.46731091  0.51570077  0.50334775     1.59700
Cd643      Cd  0.52857753  0.52940679  0.51986547     1.59600
O644        O  0.46461346  0.54597404  0.52985230    -0.80700
O645        O  0.50495113  0.50653229  0.49725896    -1.91200
Cd646      Cd  0.51268004  0.51314213  0.45935599     1.59900
O647        O  0.50545390  0.55440347  0.54364259    -0.80700
O648        O  0.52749257  0.47937778  0.44195522    -0.79300
C649        C  0.55129459  0.48023330  0.54753256     0.83200
C650        C  0.45345678  0.46120927  0.52542079     0.82800
O651        O  0.52361371  0.44907610  0.47336242    -0.78300
C652        C  0.45634873  0.53162262  0.44596517     0.83700
O653        O  0.53634261  0.46530897  0.53399759    -0.78400
C654        C  0.48062537  0.55858925  0.54446505     0.83800
C655        C  0.55473455  0.55570683  0.47101691     0.84100
O656        O  0.55338911  0.55273002  0.49597918    -0.80800
O657        O  0.47891783  0.71101991  0.75447908    -0.78300
C658        C  0.54650400  0.70074049  0.80332328     0.82700
O659        O  0.46846587  0.73422147  0.85118822    -0.79400
O660        O  0.54735702  0.78703970  0.81478168    -0.80900
O661        O  0.50159008  0.79294236  0.74494603    -0.80700
O662        O  0.45736537  0.74805541  0.74481806    -0.79300
Zn663      Zn  0.49044752  0.71739637  0.79170947     1.55700
O664        O  0.53932857  0.77153936  0.75142744    -0.80700
Cd665      Cd  0.47602806  0.77400384  0.77017146     1.59700
Cd666      Cd  0.48808615  0.76521781  0.83221610     1.59600
O667        O  0.45064322  0.80103533  0.78836377    -0.80700
O668        O  0.49686084  0.75380047  0.79622711    -1.91200
Cd669      Cd  0.53451544  0.75828786  0.78971295     1.59900
O670        O  0.46120922  0.79556307  0.83057965    -0.80700
O671        O  0.55525441  0.72396211  0.79918079    -0.79300
C672        C  0.45721088  0.71429527  0.84045905     0.83200
C673        C  0.46451637  0.72465788  0.73912739     0.82800
O674        O  0.52216964  0.69542163  0.80062596    -0.78300
C675        C  0.52488293  0.78702834  0.73779216     0.83700
O676        O  0.46263569  0.70715968  0.81708582    -0.78400
C677        C  0.44836391  0.80737953  0.81260100     0.83800
C678        C  0.54103546  0.79325972  0.83818147     0.84100
O679        O  0.52102584  0.78301105  0.84961759    -0.80800
O680        O  0.25535848  0.98819522  0.20353177    -0.78300
C681        C  0.29995836  0.05923976  0.19433808     0.82700
O682        O  0.35074748  0.98126008  0.23021387    -0.79400
O683        O  0.31384688  0.06177265  0.27861936    -0.80900
O684        O  0.24241379  0.01551283  0.28612555    -0.80700
O685        O  0.24301850  0.97024953  0.24147533    -0.79300
Zn686      Zn  0.29113389  0.00270948  0.21151081     1.55700
O687        O  0.25047217  0.05368970  0.26598156    -0.80700
Cd688      Cd  0.26764538  0.98962785  0.26753697     1.59700
Cd689      Cd  0.33059504  0.00133673  0.26028015     1.59600
O690        O  0.28533287  0.96405074  0.29441906    -0.80700
O691        O  0.29452536  0.00989239  0.24783228    -1.91200
Cd692      Cd  0.28779478  0.04771659  0.25162113     1.59900
O693        O  0.32785598  0.97472739  0.29075070    -0.80700
O694        O  0.29488303  0.06831065  0.21710922    -0.79300
C695        C  0.34092242  0.97072840  0.20948812     0.83200
C696        C  0.23933444  0.97438989  0.21701434     0.82800
O697        O  0.29892190  0.03463324  0.18970717    -0.78300
C698        C  0.23639825  0.03936562  0.28104782     0.83700
O699        O  0.31778001  0.97632731  0.20177380    -0.78400
C700        C  0.30936253  0.96165929  0.30148909     0.83800
C701        C  0.33704738  0.05572946  0.28574862     0.84100
O702        O  0.34814164  0.03461251  0.27759354    -0.80800
O703        O  0.18805036  0.80789278  0.97260631    -0.78300
C704        C  0.21754729  0.74716382  0.03229727     0.82700
O705        O  0.22410086  0.85911064  0.02821168    -0.79400
O706        O  0.29321872  0.79777712  0.04504129    -0.80900
O707        O  0.26453309  0.76166280  0.95583070    -0.80700
O708        O  0.21754616  0.80950886  0.94056233    -0.79300
Zn709      Zn  0.20953978  0.79929838  0.00488444     1.55700
O710        O  0.28539719  0.75474139  0.99382803    -0.80700
Cd711      Cd  0.25108068  0.79953157  0.96180663     1.59700
Cd712      Cd  0.25635266  0.84169993  0.00866149     1.59600
O713        O  0.27936141  0.82498714  0.94971165    -0.80700
O714        O  0.24587459  0.80531072  0.99942606    -1.91200
Cd715      Cd  0.26635114  0.77925761  0.01978132     1.59900
O716        O  0.27300954  0.86013513  0.97527968    -0.80700
O717        O  0.24116781  0.75311970  0.03848542    -0.79300
C718        C  0.20374780  0.84779187  0.03807714     0.83200
C719        C  0.19405968  0.81250549  0.94875204     0.82800
O720        O  0.20382010  0.76227831  0.01765080    -0.78300
C721        C  0.27988783  0.74799039  0.97027315     0.83700
O722        O  0.19750016  0.82432079  0.03196803    -0.78400
C723        C  0.28389941  0.84893325  0.95546184     0.83800
C724        C  0.29916998  0.82208178  0.04809519     0.84100
O725        O  0.28714278  0.84027648  0.03562613    -0.80800
C726        C  0.35041034  0.93124380  0.83768575     0.86700
C727        C  0.37191915  0.94588433  0.85330630    -0.53600
C728        C  0.38428417  0.93088578  0.87198292     0.09600
C729        C  0.37480999  0.90199239  0.87228244     0.20500
C730        C  0.36542018  0.90777971  0.82565958    -0.54300
C731        C  0.37799938  0.89223506  0.84367235     0.09700
C732        C  0.33241818  0.91887037  0.85846695    -0.53800
C733        C  0.34493335  0.90397539  0.87675407     0.10300
H734        H  0.37644448  0.96656612  0.85037956     0.14800
H735        H  0.38509185  0.88941845  0.88685139     0.00500
H736        H  0.36788473  0.90455148  0.80479845     0.15100
H737        H  0.31122212  0.92165009  0.85854181     0.14900
C738        C  0.65645831  0.85479800  0.92104037     0.86700
C739        C  0.66985535  0.87160574  0.89987406    -0.53600
C740        C  0.65314179  0.88715962  0.88586916     0.09600
C741        C  0.62416501  0.88523182  0.89481167     0.20500
C742        C  0.64200410  0.87538134  0.93829825    -0.54300
C743        C  0.62492083  0.89132488  0.92462552     0.09700
C744        C  0.63413978  0.84018122  0.90707894    -0.53800
C745        C  0.61721012  0.85581356  0.89365063     0.10300
H746        H  0.69089645  0.87120872  0.89617984     0.14800
H747        H  0.61032845  0.89749577  0.88323515     0.00500
H748        H  0.64458259  0.87757053  0.95928831     0.15100
H749        H  0.63171602  0.81892197  0.90799865     0.14900
C750        C  0.41996877  0.84794767  0.15048256     0.86700
C751        C  0.39889643  0.83620729  0.13217793    -0.53600
C752        C  0.38541671  0.85424868  0.11737125     0.09600
C753        C  0.39492668  0.88285095  0.12217249     0.20500
C754        C  0.43796549  0.86390715  0.13174281    -0.54300
C755        C  0.42481026  0.88220122  0.11684088     0.09700
C756        C  0.40602172  0.86926525  0.16646797    -0.53800
C757        C  0.39298993  0.88739742  0.15196008     0.10300
H758        H  0.39517186  0.81518010  0.13106140     0.14800
H759        H  0.38411093  0.89804774  0.11090582     0.00500
H760        H  0.45914356  0.86227927  0.13092043     0.15100
H761        H  0.40678588  0.87020706  0.18781060     0.14900
C762        C  0.33618008  0.15980565  0.07581264     0.86700
C763        C  0.35113021  0.13967160  0.05861555    -0.53600
C764        C  0.36735451  0.12326679  0.07253201     0.09600
C765        C  0.36755816  0.12875084  0.10229139     0.20500
C766        C  0.32230914  0.14332963  0.09695710    -0.54300
C767        C  0.33852934  0.12699407  0.11077952     0.09700
C768        C  0.35866863  0.17401080  0.09037167    -0.53800
C769        C  0.37502762  0.15800224  0.10423461     0.10300
H770        H  0.35190965  0.14008146  0.03742474     0.14800
H771        H  0.38091936  0.11574347  0.11362171     0.00500
H772        H  0.30128524  0.14447597  0.10057614     0.15100
H773        H  0.36181474  0.19515595  0.08924519     0.14900
C774        C  0.58019870  0.16951290  0.84920749     0.86700
C775        C  0.56294953  0.15242960  0.86753084    -0.53600
C776        C  0.57646149  0.13345417  0.88100533     0.09600
C777        C  0.60622561  0.13352979  0.87530905     0.20500
C778        C  0.60103501  0.18074754  0.86806654    -0.54300
C779        C  0.61520336  0.16202148  0.88108968     0.09700
C780        C  0.59510003  0.14992147  0.83194281    -0.53800
C781        C  0.60800000  0.13064978  0.84520233     0.10300
H782        H  0.54189260  0.15512200  0.86982104     0.14800
H783        H  0.61732959  0.11839671  0.88648438     0.00500
H784        H  0.60376124  0.20142862  0.87232950     0.15100
H785        H  0.59514506  0.15122539  0.81062539     0.14900
C786        C  0.65048229  0.08404015  0.16138780     0.86700
C787        C  0.63236851  0.10517534  0.17287927    -0.53600
C788        C  0.61932913  0.11969010  0.15446333     0.09600
C789        C  0.62496800  0.11115300  0.12584504     0.20500
C790        C  0.63151745  0.06737492  0.14444958    -0.54300
C791        C  0.61855990  0.08130599  0.12534364     0.09700
C792        C  0.66803563  0.09828826  0.14153959    -0.53800
C793        C  0.65502369  0.11242712  0.12302057     0.10300
H794        H  0.62984045  0.10832612  0.19383953     0.14800
H795        H  0.61450328  0.12316136  0.11092554     0.00500
H796        H  0.62709126  0.04688584  0.14814479     0.15100
H797        H  0.68939180  0.09711395  0.14206187     0.14900
O798        O  0.47747621  0.98942633  0.94080960    -0.78300
C799        C  0.52372337  0.06154087  0.95280132     0.82700
O800        O  0.54660017  0.96351864  0.99963559    -0.79400
O801        O  0.53066936  0.05153052  0.03609088    -0.80900
O802        O  0.43849466  0.03210553  0.01702802    -0.80700
O803        O  0.44495206  0.98536261  0.96980191    -0.79300
Zn804      Zn  0.50808322  0.00387082  0.96198299     1.55700
O805        O  0.46860624  0.06361511  0.02213710    -0.80700
Cd806      Cd  0.46061043  0.00033440  0.00410196     1.59700
Cd807      Cd  0.52114863  0.98679041  0.02214877     1.59600
O808        O  0.45674896  0.97206415  0.03296695    -0.80700
O809        O  0.49845172  0.00928897  0.99857831    -1.91200
Cd810      Cd  0.50283766  0.04737000  0.00732546     1.59900
O811        O  0.49770062  0.96173682  0.04511079    -0.80700
O812        O  0.51644543  0.06898288  0.97556329    -0.79300
C813        C  0.55038823  0.96268198  0.97482738     0.83200
C814        C  0.45411787  0.98240527  0.94666447     0.82800
O815        O  0.52140564  0.03758114  0.94561528    -0.78300
C816        C  0.44511164  0.05513290  0.02451613     0.83700
O817        O  0.53729491  0.97725030  0.95917284    -0.78400
C818        C  0.47278070  0.95891322  0.04704110     0.83800
C819        C  0.54484820  0.03612981  0.04976355     0.84100
O820        O  0.54367612  0.01111213  0.04686702    -0.80800
O821        O  0.97953416  0.80304698  0.24667792    -0.78300
C822        C  0.04845904  0.81341273  0.19776229     0.82700
O823        O  0.96940593  0.77623204  0.15135743    -0.79400
O824        O  0.05183087  0.72912067  0.18693619    -0.80900
O825        O  0.00539958  0.72235178  0.25905095    -0.80700
O826        O  0.95898134  0.76547870  0.25670997    -0.79300
Zn827      Zn  0.99222675  0.79592984  0.20967704     1.55700
O828        O  0.04386911  0.74208886  0.25111326    -0.80700
Cd829      Cd  0.97928285  0.73945396  0.23287626     1.59700
Cd830      Cd  0.99104731  0.74678387  0.17054651     1.59600
O831        O  0.95486160  0.71104525  0.21518311    -0.80700
O832        O  0.99967011  0.75943741  0.20636144    -1.91200
Cd833      Cd  0.03757257  0.75602574  0.21316083     1.59900
O834        O  0.96611653  0.71474767  0.17290260    -0.80700
O835        O  0.05736001  0.79083655  0.20416062    -0.79300
C836        C  0.95817139  0.79657324  0.16110774     0.83200
C837        C  0.96496372  0.78934531  0.26190803     0.82800
O838        O  0.02388230  0.81822873  0.19938742    -0.78300
C839        C  0.02924698  0.72737654  0.26534402     0.83700
O840        O  0.96389513  0.80476855  0.18410351    -0.78400
C841        C  0.95321907  0.70357461  0.19121619     0.83800
C842        C  0.04591785  0.72337719  0.16324708     0.84100
O843        O  0.02477331  0.73170651  0.15234613    -0.80800
O844        O  0.79624824  0.25124518  0.97925871    -0.78300
C845        C  0.80709321  0.20514552  0.04780314     0.82700
O846        O  0.77037114  0.15548887  0.97006840    -0.79400
O847        O  0.72370163  0.19271778  0.05262788    -0.80900
O848        O  0.71347892  0.26238439  0.00340573    -0.80700
O849        O  0.75877881  0.26163159  0.95880196    -0.79300
Zn850      Zn  0.78895507  0.21453644  0.99179564     1.55700
O851        O  0.73463024  0.25723967  0.04167236    -0.80700
Cd852      Cd  0.73272045  0.23697436  0.97822992     1.59700
Cd853      Cd  0.74070118  0.17491921  0.99151889     1.59600
O854        O  0.70570194  0.21820806  0.95330527    -0.80700
O855        O  0.75273131  0.21115514  0.99938764    -1.91200
Cd856      Cd  0.74959846  0.21937898  0.03703732     1.59900
O857        O  0.70859733  0.17638143  0.96659193    -0.80700
O858        O  0.78483008  0.21224047  0.05695011    -0.79300
C859        C  0.79045540  0.16557730  0.95860011     0.83200
C860        C  0.78267235  0.26662117  0.96482015     0.82800
O861        O  0.81117575  0.20520835  0.02314873    -0.78300
C862        C  0.71872443  0.26985595  0.02680496     0.83700
O863        O  0.79811230  0.18886228  0.96395706    -0.78400
C864        C  0.69794222  0.19424308  0.95260815     0.83800
C865        C  0.71841499  0.16876561  0.04723231     0.84100
O866        O  0.72611304  0.15769520  0.02596206    -0.80800
O867        O  0.24609580  0.02794868  0.70518652    -0.78300
C868        C  0.19878325  0.95819083  0.69584835     0.82700
O869        O  0.14997460  0.03481464  0.72780375    -0.79400
O870        O  0.18744035  0.95734512  0.78146203    -0.80900
O871        O  0.25842107  0.00447007  0.78586437    -0.80700
O872        O  0.25625934  0.04919611  0.74201333    -0.79300
Zn873      Zn  0.20995000  0.01442215  0.71206970     1.55700
O874        O  0.25143946  0.96598567  0.76572049    -0.80700
Cd875      Cd  0.23199859  0.02951023  0.76796751     1.59700
Cd876      Cd  0.16955287  0.01690744  0.75976644     1.59600
O877        O  0.21394447  0.05452976  0.79509685    -0.80700
O878        O  0.20572088  0.00829922  0.74844161    -1.91200
Cd879      Cd  0.21274708  0.97068990  0.75314261     1.59900
O880        O  0.17142988  0.04433194  0.79002157    -0.80700
O881        O  0.20305100  0.94977635  0.71910860    -0.79300
C882        C  0.16019145  0.04507471  0.70712522     0.83200
C883        C  0.26141707  0.04290290  0.71832255     0.82800
O884        O  0.20165860  0.98242369  0.69021287    -0.78300
C885        C  0.26549705  0.98102723  0.78025434     0.83700
O886        O  0.18400967  0.04080852  0.70099124    -0.78400
C887        C  0.18976877  0.05720440  0.80145582     0.83800
C888        C  0.16360168  0.96304684  0.78679270     0.84100
O889        O  0.15239429  0.98344335  0.77705924    -0.80800
C890        C  0.15839673  0.16299499  0.91761729     0.86700
C891        C  0.14274870  0.14403736  0.93573157    -0.53600
C892        C  0.12625040  0.12726400  0.92253521     0.09600
C893        C  0.12692788  0.13071773  0.89254260     0.20500
C894        C  0.17254117  0.14433439  0.89837452    -0.54300
C895        C  0.15613500  0.12754252  0.88503766     0.09700
C896        C  0.13706703  0.17655638  0.90128192    -0.53800
C897        C  0.12055947  0.15986373  0.88851739     0.10300
H898        H  0.14348333  0.14393137  0.95694581     0.14800
H899        H  0.11333325  0.11751841  0.88161696     0.00500
H900        H  0.19370391  0.14446843  0.89551184     0.15100
H901        H  0.13454249  0.19780282  0.90068775     0.14900
C902        C  0.15019589  0.93000552  0.15899470     0.86700
C903        C  0.12954518  0.94791097  0.14576717    -0.53600
C904        C  0.11350919  0.93511841  0.12823524     0.09600
C905        C  0.11857759  0.90522711  0.12665362     0.20500
C906        C  0.13330476  0.90837926  0.17211071    -0.54300
C907        C  0.11686667  0.89541849  0.15527938     0.09700
C908        C  0.16411189  0.91613125  0.13623076    -0.53800
C909        C  0.14779274  0.90339948  0.11930334     0.10300
H910        H  0.12871273  0.96902259  0.14875334     0.14800
H911        H  0.10532841  0.89455530  0.11288615     0.00500
H912        H  0.13307263  0.90411861  0.19297629     0.15100
H913        H  0.18532712  0.91654117  0.13355824     0.14900
C914        C  0.92189375  0.17065585  0.15243804     0.86700
C915        C  0.93923780  0.15599827  0.13208958    -0.53600
C916        C  0.92555674  0.13855654  0.11663480     0.09600
C917        C  0.89593693  0.13733078  0.12285747     0.20500
C918        C  0.90010825  0.18334766  0.13575113    -0.54300
C919        C  0.88641121  0.16599272  0.12051095     0.09700
C920        C  0.90842049  0.14831883  0.16755235    -0.53800
C921        C  0.89507204  0.13083020  0.15235333     0.10300
H922        H  0.96038343  0.15768489  0.13057760     0.14800
H923        H  0.88472178  0.12327363  0.11038015     0.00500
H924        H  0.89604416  0.20433825  0.13576048     0.15100
H925        H  0.90945558  0.14644873  0.18881677     0.14900
C926        C  0.83941213  0.85766290  0.07513139     0.86700
C927        C  0.82672637  0.87602641  0.09569126    -0.53600
C928        C  0.84437571  0.89008732  0.11048862     0.09600
C929        C  0.87338538  0.88452354  0.10311733     0.20500
C930        C  0.85678511  0.87652710  0.05886183    -0.54300
C931        C  0.87500965  0.89024589  0.07332517     0.09700
C932        C  0.85858107  0.84081240  0.09101615    -0.53800
C933        C  0.87649258  0.85442836  0.10541064     0.10300
H934        H  0.80576781  0.87881411  0.09806032     0.14800
H935        H  0.88791234  0.89564765  0.11499385     0.00500
H936        H  0.85503650  0.87861195  0.03769310     0.15100
H937        H  0.85811236  0.81940857  0.09063543     0.14900
C938        C  0.07644489  0.84860619  0.84787928     0.86700
C939        C  0.09653894  0.83521098  0.86595992    -0.53600
C940        C  0.11054845  0.85207972  0.88148140     0.09600
C941        C  0.10302162  0.88124952  0.87770758     0.20500
C942        C  0.05911368  0.86513406  0.86664106    -0.54300
C943        C  0.07293638  0.88213007  0.88253248     0.09700
C944        C  0.09202481  0.86955554  0.83271376    -0.53800
C945        C  0.10605212  0.88638386  0.84806022     0.10300
H946        H  0.09983237  0.81408117  0.86601571     0.14800
H947        H  0.11473165  0.89486449  0.89019177     0.00500
H948        H  0.03785672  0.86510142  0.86632167     0.15100
H949        H  0.09209737  0.87092234  0.81139086     0.14900
C950        C  0.84780555  0.08434900  0.83528101     0.86700
C951        C  0.86579219  0.10474055  0.82227564    -0.53600
C952        C  0.88030298  0.11922411  0.83950709     0.09600
C953        C  0.87605965  0.11150465  0.86864682     0.20500
C954        C  0.86717103  0.06750856  0.85164925    -0.54300
C955        C  0.88149852  0.08151803  0.86983584     0.09700
C956        C  0.83178849  0.09947502  0.85578036    -0.53800
C957        C  0.84623351  0.11352780  0.87335223     0.10300
H958        H  0.86703743  0.10754710  0.80114596     0.14800
H959        H  0.88764209  0.12346331  0.88271867     0.00500
H960        H  0.87033918  0.04672195  0.84852865     0.15100
H961        H  0.81043361  0.09855477  0.85664955     0.14900
O962        O  0.98021556  0.06915266  0.02332832    -0.78300
C963        C  0.05021059  0.05833419  0.97240072     0.82700
O964        O  0.95390240  0.01195901  0.95133181    -0.79400
O965        O  0.04068405  0.97411896  0.96514714    -0.80900
O966        O  0.02462077  0.99233292  0.05745979    -0.80700
O967        O  0.97756058  0.03882128  0.05475266    -0.79300
Zn968      Zn  0.99368541  0.04897197  0.99129938     1.55700
O969        O  0.05552657  0.98952378  0.02665603    -0.80700
Cd970      Cd  0.99184962  0.00528277  0.03709645     1.59700
Cd971      Cd  0.97636264  0.98831667  0.97671290     1.59600
O972        O  0.96340323  0.97662537  0.04138170    -0.80700
O973        O  0.99945395  0.01178327  0.99915877    -1.91200
Cd974      Cd  0.03726931  0.00321105  0.99298276     1.59900
O975        O  0.95046466  0.96653529  0.00061443    -0.80700
O976        O  0.05772420  0.03525462  0.97861481    -0.79300
C977        C  0.95244793  0.03699507  0.94883295     0.83200
C978        C  0.97399784  0.06227502  0.04665993     0.82800
O979        O  0.02667445  0.06604239  0.97639096    -0.78300
C980        C  0.04783174  0.98629740  0.05025981     0.83700
O981        O  0.96623450  0.05228984  0.96313464    -0.78400
C982        C  0.94865882  0.96390887  0.02556244     0.83800
C983        C  0.02481179  0.95994632  0.95187500     0.84100
O984        O  0.99981752  0.96221147  0.95426104    -0.80800
O985        O  0.20237188  0.26718922  0.97903529    -0.78300
C986        C  0.19613308  0.31617297  0.04976317     0.82700
O987        O  0.23124766  0.36162315  0.96931748    -0.79400
O988        O  0.28224712  0.32501094  0.04924657    -0.80900
O989        O  0.28343642  0.25238850  0.00521415    -0.80700
O990        O  0.23949869  0.25604100  0.95835084    -0.79300
Zn991      Zn  0.21081517  0.30359208  0.99317647     1.55700
O992        O  0.26464467  0.26290416  0.04343572    -0.80700
Cd993      Cd  0.26674153  0.27876935  0.97864610     1.59700
Cd994      Cd  0.26119135  0.34172436  0.98951117     1.59600
O995        O  0.29526013  0.29527496  0.95348419    -0.80700
O996        O  0.24779967  0.30636259  0.99888867    -1.91200
Cd997      Cd  0.25263642  0.30082062  0.03677298     1.59900
O998        O  0.29164704  0.33802022  0.96290301    -0.80700
O999        O  0.21918446  0.31082798  0.05808123    -0.79300
C1000       C  0.20960229  0.35242087  0.96015074     0.83200
C1001       C  0.21536594  0.25187810  0.96392637     0.82800
O1002       O  0.19005242  0.31375651  0.02558216    -0.78300
C1003       C  0.27878486  0.24766862  0.02946643     0.83700
O1004       O  0.20063560  0.32996865  0.96659508    -0.78400
C1005       C  0.30258865  0.31921616  0.95046654     0.83800
C1006       C  0.28868181  0.34832055  0.04269335     0.84100
O1007       O  0.27892447  0.35960167  0.02236000    -0.80800
O1008       O  0.75134341  0.48628082  0.70463752    -0.78300
C1009       C  0.80041430  0.55546815  0.69539979     0.82700
O1010       O  0.84780912  0.47803952  0.72812553    -0.79400
O1011       O  0.81151143  0.55633419  0.78016234    -0.80900
O1012       O  0.74006764  0.51007806  0.78517884    -0.80700
O1013       O  0.74282422  0.46396266  0.74150420    -0.79300
Zn1014     Zn  0.78818555  0.49903481  0.71128951     1.55700
O1015       O  0.74799406  0.54839324  0.76531542    -0.80700
Cd1016     Cd  0.76640757  0.48459460  0.76767525     1.59700
Cd1017     Cd  0.82867596  0.49722897  0.75891036     1.59600
O1018       O  0.78471886  0.46033124  0.79553570    -0.80700
O1019       O  0.79248710  0.50545092  0.74764223    -1.91200
Cd1020     Cd  0.78602201  0.54296638  0.75229828     1.59900
O1021       O  0.82698229  0.47016113  0.78913649    -0.80700
O1022       O  0.79554563  0.56383224  0.71850619    -0.79300
C1023       C  0.83695566  0.46617462  0.70872667     0.83200
C1024       C  0.73703061  0.47054911  0.71797818     0.82800
O1025       O  0.79759169  0.53120754  0.68954245    -0.78300
C1026       C  0.73364046  0.53377279  0.77989215     0.83700
O1027       O  0.81335668  0.47076659  0.70166287    -0.78400
C1028       C  0.80905325  0.45749201  0.80131170     0.83800
C1029       C  0.83562553  0.55116545  0.78460452     0.84100
O1030       O  0.84670984  0.53077754  0.77484984    -0.80800
O1031       O  0.97220199  0.19571084  0.79291927    -0.78300
C1032       C  0.03362458  0.22677290  0.73418419     0.82700
O1033       O  0.02737788  0.23249030  0.84402378    -0.79400
O1034       O  0.04287783  0.30389444  0.78292611    -0.80900
O1035       O  0.95459382  0.27312928  0.74743726    -0.80700
O1036       O  0.93992876  0.22474160  0.79351877    -0.79300
Zn1037     Zn  0.00425872  0.21791803  0.78433792     1.55700
O1038       O  0.99297488  0.29280224  0.73899564    -0.80700
Cd1039     Cd  0.96115435  0.25861485  0.78468040     1.59700
Cd1040     Cd  0.00890738  0.26494535  0.82653986     1.69200
O1041       O  0.94896625  0.28586279  0.81081018    -0.80700
O1042       O  0.99889809  0.25431962  0.79048017    -1.91200
Cd1043     Cd  0.01902898  0.27543248  0.76476721     1.59900
O1044       O  0.97629635  0.28249101  0.84496355    -0.80700
O1045       O  0.04008770  0.25009985  0.74098249    -0.79300
C1046       C  0.03734541  0.21223182  0.83275374     0.83200
C1047       C  0.94810437  0.20129464  0.79688530     0.82800
O1048       O  0.01754224  0.21282612  0.74750919    -0.78300
C1049       C  0.96901049  0.28794217  0.73318077     0.83700
O1050       O  0.03138568  0.20599705  0.80928953    -0.78400
C1051       C  0.95555142  0.29195089  0.83412812     0.83800
C1052       C  0.04774796  0.30836803  0.80719382     0.84100
O1053       O  0.03706096  0.29474305  0.82536509    -0.80800
C1054       C  0.84159336  0.35389585  0.91986338     0.86700
C1055       C  0.85772014  0.37281244  0.93758068    -0.53600
C1056       C  0.87578761  0.38790189  0.92431991     0.09600
C1057       C  0.87530172  0.38305974  0.89434307     0.20500
C1058       C  0.82906208  0.37230076  0.89937188    -0.54300
C1059       C  0.84645490  0.38748958  0.88533744     0.09700
C1060       C  0.86239241  0.33830810  0.90499518    -0.53800
C1061       C  0.88001518  0.35323794  0.89185140     0.10300
H1062       H  0.85583695  0.37401814  0.95869349     0.14800
H1063       H  0.88959395  0.39538616  0.88393008     0.00500
H1064       H  0.80802189  0.37238035  0.89589005     0.15100
H1065       H  0.86333629  0.31691324  0.90509274     0.14900
C1066       C  0.14929456  0.42996779  0.83658625     0.86700
C1067       C  0.13282618  0.40767712  0.82371331    -0.53600
C1068       C  0.11897307  0.39242082  0.84119869     0.09600
C1069       C  0.12303234  0.40096411  0.87011016     0.20500
C1070       C  0.12898707  0.44540450  0.85284854    -0.54300
C1071       C  0.11569755  0.43036972  0.87071895     0.09700
C1072       C  0.16627844  0.41589773  0.85695696    -0.53800
C1073       C  0.15311201  0.40045264  0.87429881     0.10300
H1074       H  0.13157354  0.40412713  0.80278842     0.14800
H1075       H  0.11165375  0.38924408  0.88454603     0.00500
H1076       H  0.12608851  0.46651357  0.85118734     0.15100
H1077       H  0.18733025  0.41928138  0.85825198     0.14900
C1078       C  0.92047760  0.66518208  0.85043068     0.86700
C1079       C  0.90112746  0.67793369  0.86971046    -0.53600
C1080       C  0.88615407  0.66052378  0.88365754     0.09600
C1081       C  0.89298320  0.63145251  0.87794855     0.20500
C1082       C  0.93731234  0.64722797  0.86843740    -0.54300
C1083       C  0.92295812  0.62944849  0.88307824     0.09700
C1084       C  0.90429228  0.64600860  0.83395812    -0.53800
C1085       C  0.89019839  0.62836304  0.84793291     0.10300
H1086       H  0.89919916  0.69910242  0.87194798     0.14800
H1087       H  0.88080016  0.61770973  0.88954528     0.00500
H1088       H  0.95851272  0.64848488  0.87000206     0.15100
H1089       H  0.90439120  0.64600666  0.81257076     0.14900
C1090       C  0.07791339  0.34712043  0.15449237     0.86700
C1091       C  0.06078772  0.36220319  0.13440433    -0.53600
C1092       C  0.07486455  0.37922820  0.11890611     0.09600
C1093       C  0.10468478  0.37955051  0.12492459     0.20500
C1094       C  0.09871411  0.33370980  0.13720883    -0.54300
C1095       C  0.11362845  0.35039472  0.12209778     0.09700
C1096       C  0.09221403  0.36896590  0.16954673    -0.53800
C1097       C  0.10617220  0.38576736  0.15440703     0.10300
H1098       H  0.03960441  0.36071610  0.13278361     0.14800
H1099       H  0.11580975  0.39407384  0.11306797     0.00500
H1100       H  0.10008495  0.31248534  0.13643496     0.15100
H1101       H  0.09112938  0.37116032  0.19078313     0.14900
C1102       C  0.85018924  0.58637350  0.16102653     0.86700
C1103       C  0.86863791  0.56911862  0.14394226    -0.53600
C1104       C  0.88331481  0.58292695  0.12588717     0.09600
C1105       C  0.87836295  0.61294684  0.12708444     0.20500
C1106       C  0.86918082  0.60629051  0.17362629    -0.54300
C1107       C  0.88333237  0.62066433  0.15600195     0.09700
C1108       C  0.83406731  0.60208672  0.14113586    -0.53800
C1109       C  0.84838252  0.61560753  0.12310728     0.10300
H1110       H  0.87018047  0.54793232  0.14586936     0.14800
H1111       H  0.89043250  0.62464733  0.11323465     0.00500
H1112       H  0.87179687  0.60870451  0.19464975     0.15100
H1113       H  0.81267375  0.60174192  0.14080146     0.14900
C1114       C  0.16032026  0.65881729  0.07860907     0.86700
C1115       C  0.17347517  0.64093913  0.09943103    -0.53600
C1116       C  0.15620225  0.62625795  0.11401837     0.09600
C1117       C  0.12707747  0.63064226  0.10628576     0.20500
C1118       C  0.14378757  0.63943651  0.06215398    -0.54300
C1119       C  0.12616808  0.62507938  0.07648889     0.09700
C1120       C  0.14033836  0.67493693  0.09417306    -0.53800
C1121       C  0.12303396  0.66059020  0.10855096     0.10300
H1122       H  0.19446546  0.63917697  0.10248042     0.14800
H1123       H  0.11279182  0.61878900  0.11780702     0.00500
H1124       H  0.14559190  0.63739263  0.04098778     0.15100
H1125       H  0.13984494  0.69634169  0.09377598     0.14900
O1126       O  0.03022093  0.55948278  0.02338170    -0.78300
C1127       C  0.97546410  0.55726688  0.95515492     0.82700
O1128       O  0.95718007  0.50658548  0.05108727    -0.79400
O1129       O  0.96322480  0.47228291  0.96110125    -0.80900
O1130       O  0.05572463  0.48143072  0.97173147    -0.80700
O1131       O  0.06088131  0.52856906  0.01980503    -0.79300
Zn1132     Zn  0.99634914  0.54325612  0.00978284     1.55700
O1133       O  0.02350068  0.48516647  0.94242273    -0.80700
Cd1134     Cd  0.03933356  0.49659421  0.00618871     1.59700
Cd1135     Cd  0.97838815  0.48312800  0.02466203     1.59600
O1136       O  0.04279994  0.46810615  0.03478944    -0.80700
O1137       O  0.00139885  0.50608805  0.00159647    -1.91200
Cd1138     Cd  0.99234948  0.49994550  0.96403434     1.59900
O1139       O  0.00179532  0.45700412  0.04624057    -0.80700
O1140       O  0.97795531  0.53371499  0.94693430    -0.79300
C1141       C  0.95571354  0.53162064  0.05312403     0.83200
C1142       C  0.05390075  0.55171553  0.02648846     0.82800
O1143       O  0.98264473  0.56402620  0.97824463    -0.78300
C1144       C  0.04678057  0.47812986  0.94846462     0.83700
O1145       O  0.96919306  0.54687360  0.03845463    -0.78400
C1146       C  0.02671648  0.45441912  0.04827492     0.83800
C1147       C  0.94916516  0.45898343  0.97696470     0.84100
O1148       O  0.95174448  0.46107412  0.00187539    -0.80800
O1149       O  0.52396319  0.81980598  0.29900737    -0.78300
C1150       C  0.46540998  0.78824452  0.23641872     0.82700
O1151       O  0.46946773  0.78024760  0.34645960    -0.79400
O1152       O  0.45690186  0.71081988  0.28569102    -0.80900
O1153       O  0.54390261  0.74491400  0.24913625    -0.80700
O1154       O  0.55755644  0.79209975  0.29751421    -0.79300
Zn1155     Zn  0.49303372  0.79695337  0.28775167     1.55700
O1156       O  0.50635597  0.72329932  0.24155810    -0.80700
Cd1157     Cd  0.53781616  0.75756624  0.28724181     1.59700
Cd1158     Cd  0.49108881  0.75001645  0.32907817     1.59600
O1159       O  0.55081145  0.72935996  0.31263312    -0.80700
O1160       O  0.50004353  0.76092569  0.29307827    -1.91200
Cd1161     Cd  0.47998182  0.73981566  0.26734124     1.59900
O1162       O  0.52458404  0.73451454  0.34742946    -0.80700
O1163       O  0.45865356  0.76500628  0.24327949    -0.79300
C1164       C  0.45742423  0.79898402  0.33462534     0.83200
C1165       C  0.54827981  0.81485269  0.30267996     0.82800
O1166       O  0.48123972  0.80221278  0.25014493    -0.78300
C1167       C  0.52973356  0.72963299  0.23498498     0.83700
O1168       O  0.46369563  0.80596129  0.31146158    -0.78400
C1169       C  0.54486062  0.72437958  0.33644730     0.83800
C1170       C  0.45353468  0.70566341  0.31007496     0.84100
O1171       O  0.46503157  0.71888296  0.32801877    -0.80800
O1172       O  0.51903128  0.21003633  0.74459907    -0.78300
C1173       C  0.45030877  0.20190120  0.69594484     0.82700
O1174       O  0.52748025  0.23400459  0.64853170    -0.79400
O1175       O  0.44924266  0.28622368  0.68571899    -0.80900
O1176       O  0.49480050  0.29279016  0.75694906    -0.80700
O1177       O  0.53870049  0.24767063  0.75578807    -0.79300
Zn1178     Zn  0.50674076  0.21753893  0.70787215     1.55700
O1179       O  0.45674215  0.27230685  0.74948340    -0.80700
Cd1180     Cd  0.52011010  0.27405695  0.73129155     1.59700
Cd1181     Cd  0.50950437  0.26549774  0.66850464     1.59600
O1182       O  0.54548339  0.30112348  0.71370879    -0.80700
O1183       O  0.50021818  0.25405876  0.70450339    -1.91200
Cd1184     Cd  0.46261927  0.25862224  0.71147815     1.59900
O1185       O  0.53835813  0.29394133  0.67088608    -0.80700
O1186       O  0.44180037  0.22464820  0.70218427    -0.79300
C1187       C  0.53878285  0.21386087  0.65868092     0.83200
C1188       C  0.53289789  0.22366447  0.76051929     0.82800
O1189       O  0.47469311  0.19643854  0.69774063    -0.78300
C1190       C  0.47117954  0.28746782  0.76350336     0.83700
O1191       O  0.53432398  0.20714660  0.68237848    -0.78400
C1192       C  0.54997256  0.30607482  0.68949853     0.83800
C1193       C  0.45571148  0.29284361  0.66245624     0.84100
O1194       O  0.47686111  0.28459199  0.65150984    -0.80800
O1195       O  0.69826515  0.97797601  0.80875805    -0.78300
C1196       C  0.75985037  0.03694942  0.78015040     0.82700
O1197       O  0.64987882  0.03397577  0.77148388    -0.79400
O1198       O  0.70986462  0.05053577  0.70455029    -0.80900
O1199       O  0.74879015  0.96227762  0.73251605    -0.80700
O1200       O  0.70132093  0.94513063  0.78024721    -0.79300
Zn1201     Zn  0.70845116  0.00983480  0.78744910     1.55700
O1202       O  0.75480930  0.00100314  0.71253979    -0.80700
Cd1203     Cd  0.71050113  0.96653424  0.74631254     1.59700
Cd1204     Cd  0.66704588  0.01271416  0.74044911     1.59600
O1205       O  0.68447184  0.95360673  0.71867120    -0.80700
O1206       O  0.70323867  0.00396435  0.75119541    -1.91200
Cd1207     Cd  0.72856092  0.02547195  0.73129121     1.59900
O1208       O  0.64897684  0.97840933  0.72589574    -0.80700
O1209       O  0.75274777  0.04487973  0.75742130    -0.79300
C1210       C  0.66119700  0.04492950  0.79127182     0.83200
C1211       C  0.69580258  0.95363900  0.80319162     0.82800
O1212       O  0.74599153  0.02082480  0.79349396    -0.78300
C1213       C  0.76228598  0.97760697  0.71778988     0.83700
O1214       O  0.68443514  0.03860237  0.79808532    -0.78400
C1215       C  0.66010389  0.95844980  0.71521038     0.83800
C1216       C  0.68572888  0.05218538  0.69762046     0.84100
O1217       O  0.66783627  0.03852999  0.70875251    -0.80800
C1218       C  0.34886734  0.08644591  0.65852939     0.86700
C1219       C  0.36837162  0.06921972  0.64299711    -0.53600
C1220       C  0.38266484  0.08256214  0.62442179     0.09600
C1221       C  0.37717606  0.11244377  0.62431915     0.20500
C1222       C  0.36656667  0.10777095  0.67077705    -0.54300
C1223       C  0.38119206  0.12146907  0.65302743     0.09700
C1224       C  0.33278635  0.10107730  0.63769933    -0.53800
C1225       C  0.34729350  0.11422585  0.61951137     0.10300
H1226       H  0.37006921  0.04812498  0.64585677     0.14800
H1227       H  0.38928979  0.12377800  0.61016276     0.00500
H1228       H  0.36862988  0.11159656  0.69160501     0.15100
H1229       H  0.31140958  0.10101712  0.63751980     0.14900
C1230       C  0.57352599  0.84443041  0.65116491     0.86700
C1231       C  0.55721041  0.86156308  0.63185887    -0.53600
C1232       C  0.57206775  0.87880963  0.61713347     0.09600
C1233       C  0.60183530  0.87709594  0.62316725     0.20500
C1234       C  0.59373131  0.83093656  0.63324415    -0.54300
C1235       C  0.60868884  0.84786904  0.61872298     0.09700
C1236       C  0.58900368  0.86456580  0.66732514    -0.53800
C1237       C  0.60374818  0.88142615  0.65305175     0.10300
H1238       H  0.53605382  0.86055784  0.62967805     0.14800
H1239       H  0.61439279  0.89052125  0.61144383     0.00500
H1240       H  0.59631817  0.80972834  0.63251133     0.15100
H1241       H  0.58825404  0.86553836  0.68867136     0.14900
C1242       C  0.65926924  0.15356741  0.57655874     0.86700
C1243       C  0.67151259  0.13523045  0.59733364    -0.53600
C1244       C  0.65369301  0.12060804  0.61127474     0.09600
C1245       C  0.62490558  0.12542534  0.60266193     0.20500
C1246       C  0.64267071  0.13470534  0.55916107    -0.54300
C1247       C  0.62468807  0.11998098  0.57287077     0.09700
C1248       C  0.63860225  0.16971514  0.59128456    -0.53800
C1249       C  0.62061830  0.15532658  0.60480384     0.10300
H1250       H  0.69257450  0.13398649  0.60072668     0.14800
H1251       H  0.61013337  0.11385104  0.61379891     0.00500
H1252       H  0.64399454  0.13324129  0.53801487     0.15100
H1253       H  0.63798465  0.19110303  0.59063427     0.14900
C1254       C  0.33370969  0.85450491  0.41654531     0.86700
C1255       C  0.35147116  0.87309758  0.43301515    -0.53600
C1256       C  0.36994938  0.88667623  0.41879588     0.09600
C1257       C  0.36839025  0.88089677  0.38909211     0.20500
C1258       C  0.32153802  0.87317712  0.39603941    -0.54300
C1259       C  0.33965445  0.88650037  0.38132981     0.09700
C1260       C  0.35294307  0.83727500  0.40120487    -0.53800
C1261       C  0.37119181  0.85087126  0.38726316     0.10300
H1262       H  0.34964839  0.87563264  0.45407205     0.14800
H1263       H  0.38275367  0.89199284  0.37698341     0.00500
H1264       H  0.30059765  0.87657254  0.39384568     0.15100
H1265       H  0.35271422  0.81588291  0.40203835     0.14900
C1266       C  0.65192817  0.92984717  0.34086975     0.86700
C1267       C  0.63514170  0.90798758  0.32811357    -0.53600
C1268       C  0.61925032  0.89465656  0.34514954     0.09600
C1269       C  0.62094219  0.90499227  0.37368996     0.20500
C1270       C  0.63118902  0.94764518  0.35411179    -0.54300
C1271       C  0.61539909  0.93467505  0.37161132     0.09700
C1272       C  0.66623983  0.91631406  0.36358329    -0.53800
C1273       C  0.65040895  0.90355116  0.38102738     0.10300
H1274       H  0.63461032  0.90397905  0.30718553     0.14800
H1275       H  0.60764337  0.89488126  0.38771832     0.00500
H1276       H  0.62923333  0.96858620  0.35044250     0.15100
H1277       H  0.68751563  0.91699509  0.36570464     0.14900
C1278       C  0.42403358  0.16876891  0.34896160     0.86700
C1279       C  0.40320756  0.18222244  0.36653441    -0.53600
C1280       C  0.38874879  0.16537704  0.38184635     0.09600
C1281       C  0.39690936  0.13625742  0.37825442     0.20500
C1282       C  0.44085707  0.15301120  0.36868005    -0.54300
C1283       C  0.42683318  0.13562463  0.38386034     0.09700
C1284       C  0.40861406  0.14802657  0.33355877    -0.53800
C1285       C  0.39482048  0.13094605  0.34856186     0.10300
H1286       H  0.39999270  0.20322219  0.36745167     0.14800
H1287       H  0.38558330  0.12226370  0.39049597     0.00500
H1288       H  0.46211938  0.15443556  0.36927562     0.15100
H1289       H  0.40879654  0.14673006  0.31221835     0.14900
O1290       O  0.51615559  0.94398468  0.51906323    -0.78300
C1291       C  0.44467450  0.95631552  0.47130683     0.82700
O1292       O  0.54216736  0.00491867  0.45079300    -0.79400
O1293       O  0.45516889  0.04057666  0.46458966    -0.80900
O1294       O  0.47252473  0.01990172  0.55742694    -0.80700
O1295       O  0.51900231  0.97334608  0.55155844    -0.79300
Zn1296     Zn  0.50207885  0.96549760  0.48794304     1.55700
O1297       O  0.44176096  0.02509042  0.52661251    -0.80700
Cd1298     Cd  0.50471032  0.00769310  0.53594403     1.59700
Cd1299     Cd  0.51938711  0.02673159  0.47679327     1.59600
O1300       O  0.53309334  0.03649949  0.54133323    -0.80700
O1301       O  0.49642523  0.00228198  0.49793572    -1.91200
Cd1302     Cd  0.45859339  0.01117661  0.49233280     1.59900
O1303       O  0.54479202  0.04849407  0.50083721    -0.80700
O1304       O  0.43732201  0.97922119  0.47836002    -0.79300
C1305       C  0.54278997  0.98029486  0.44586737     0.83200
C1306       C  0.52232379  0.95014255  0.54264488     0.82800
O1307       O  0.46850321  0.94887399  0.47388261    -0.78300
C1308       C  0.44959694  0.02707577  0.55037211     0.83700
O1309       O  0.52857362  0.96376330  0.45829872    -0.78400
C1310       C  0.54705483  0.05030424  0.52576818     0.83800
C1311       C  0.47135251  0.05510234  0.45210944     0.84100
O1312       O  0.49622567  0.05288323  0.45504445    -0.80800
C1313       C  0.46068114  0.07524080  0.43384091     0.00000
C1314       C  0.47237676  0.10028400  0.43284113    -0.11900
C1315       C  0.46175564  0.12039263  0.41712021     0.02300
C1316       C  0.43923458  0.11540298  0.40137907    -0.00100
C1317       C  0.42806949  0.09004979  0.40198832    -0.11800
C1318       C  0.43833578  0.07019733  0.41805569     0.02100
H1319       H  0.48938628  0.10443786  0.44508407     0.15100
H1320       H  0.41135560  0.08541844  0.38955653     0.15100
C1321       C  0.42591490  0.04458016  0.41732481     0.36800
C1322       C  0.47376758  0.14611890  0.41863369     0.36700
N1323       N  0.41591941  0.02408919  0.41674154    -0.43600
N1324       N  0.48357789  0.16666893  0.41987104    -0.43600
C1325       C  0.59687725  0.94833303  0.38946485     0.00000
C1326       C  0.56970477  0.94577134  0.38534232    -0.11900
C1327       C  0.55169496  0.95662803  0.40318343     0.02300
C1328       C  0.56090545  0.97040245  0.42548870    -0.00100
C1329       C  0.58804655  0.97358936  0.42919511    -0.11800
C1330       C  0.60603438  0.96243314  0.41160119     0.02100
H1331       H  0.56255816  0.93513970  0.36828974     0.15100
H1332       H  0.59521131  0.98394736  0.44644426     0.15100
C1333       C  0.63372797  0.96452566  0.41755159     0.36800
C1334       C  0.52388244  0.95385911  0.39800800     0.36700
N1335       N  0.65583119  0.96622501  0.42277359    -0.43600
N1336       N  0.50158089  0.95180008  0.39382602    -0.43600
C1337       C  0.38947245  0.90486675  0.43150118     0.00000
C1338       C  0.38112094  0.92073274  0.45259652    -0.11900
C1339       C  0.39871216  0.93713629  0.46620698     0.02300
C1340       C  0.42538911  0.93828576  0.45864161    -0.00100
C1341       C  0.43383344  0.92250580  0.43767941    -0.11800
C1342       C  0.41634913  0.90596465  0.42411788     0.02100
H1343       H  0.36067507  0.92033530  0.45861297     0.15100
H1344       H  0.45428302  0.92329849  0.43162478     0.15100
C1345       C  0.42726698  0.89010117  0.40333489     0.36800
C1346       C  0.38908870  0.95155196  0.48866371     0.36700
N1347       N  0.43700475  0.87806439  0.38668706    -0.43600
N1348       N  0.38136932  0.96289397  0.50679934    -0.43600
C1349       C  0.56655549  0.06881453  0.53718046     0.00000
C1350       C  0.59289596  0.06743518  0.52908889    -0.11900
C1351       C  0.61222731  0.08354799  0.54060717     0.02300
C1352       C  0.60514883  0.10208918  0.56009631    -0.00100
C1353       C  0.57871943  0.10355968  0.56797632    -0.11800
C1354       C  0.55952871  0.08707829  0.55687266     0.02100
H1355       H  0.59853673  0.05307031  0.51437129     0.15100
H1356       H  0.57294771  0.11782875  0.58273347     0.15100
C1357       C  0.53260417  0.08985803  0.56546112     0.36800
C1358       C  0.63933110  0.07943858  0.53328091     0.36700
N1359       N  0.51103567  0.09216406  0.57232916    -0.43600
N1360       N  0.66107317  0.07602510  0.52751659    -0.43600
C1361       C  0.56025975  0.89695082  0.59709415     0.00000
C1362       C  0.54004576  0.88751503  0.58049259    -0.11900
C1363       C  0.52778709  0.90400402  0.56191997     0.02300
C1364       C  0.53513510  0.93075217  0.56029073    -0.00100
C1365       C  0.55546215  0.93999841  0.57647009    -0.11800
C1366       C  0.56834183  0.92351462  0.59425831     0.02100
H1367       H  0.53395356  0.86708613  0.58182613     0.15100
H1368       H  0.56168130  0.96040586  0.57491941     0.15100
C1369       C  0.58979715  0.93511535  0.60876001     0.36800
C1370       C  0.50737491  0.89318599  0.54534816     0.36700
N1371       N  0.60729539  0.94551380  0.61901689    -0.43600
N1372       N  0.49110575  0.88444197  0.53197991    -0.43600
C1373       C  0.40015625  0.06873999  0.60524421     0.00000
C1374       C  0.41545216  0.04731829  0.61398240    -0.11900
C1375       C  0.43128855  0.03294235  0.59655762     0.02300
C1376       C  0.43213834  0.03996397  0.56973274    -0.00100
C1377       C  0.41683861  0.06108263  0.56098477    -0.11800
C1378       C  0.40101583  0.07541438  0.57818935     0.02100
H1379       H  0.41511573  0.04175844  0.63455426     0.15100
H1380       H  0.41748858  0.06672783  0.54041078     0.15100
C1381       C  0.38558309  0.09609787  0.56650283     0.36800
C1382       C  0.44552559  0.01046537  0.60649314     0.36700
N1383       N  0.37409294  0.11238336  0.55552771    -0.43600
N1384       N  0.45676394  0.99233291  0.61445395    -0.43600
C1385       C  0.67798685  0.06998923  0.67568121     0.00000
C1386       C  0.65880130  0.06136742  0.65768085    -0.11900
C1387       C  0.65091178  0.07715836  0.63643785     0.02300
C1388       C  0.66177749  0.10260592  0.63316756    -0.00100
C1389       C  0.68090398  0.11126096  0.65130192    -0.11800
C1390       C  0.68910214  0.09526361  0.67228872     0.02100
H1391       H  0.65036050  0.04184995  0.65984824     0.15100
H1392       H  0.68922308  0.13083698  0.64933734     0.15100
C1393       C  0.70811206  0.10572878  0.69067039     0.36800
C1394       C  0.63274818  0.06597997  0.61764739     0.36700
N1395       N  0.72330359  0.11413709  0.70544269    -0.43600
N1396       N  0.61825838  0.05660254  0.60275683    -0.43600
C1397       C  0.61907771  0.90211952  0.66645596     0.00000
C1398       C  0.60651467  0.92566765  0.67342153    -0.11900
C1399       C  0.61939283  0.94471975  0.68874008     0.02300
C1400       C  0.64500751  0.93965648  0.69846131    -0.00100
C1401       C  0.65706636  0.91551899  0.69194940    -0.11800
C1402       C  0.64433229  0.89684990  0.67630647     0.02100
H1403       H  0.58648360  0.92912212  0.66688738     0.15100
H1404       H  0.67645074  0.91079620  0.69951545     0.15100
C1405       C  0.65697942  0.87178620  0.67200171     0.36800
C1406       C  0.60591074  0.96920998  0.69368504     0.36700
N1407       N  0.66718705  0.85168728  0.66885962    -0.43600
N1408       N  0.59508292  0.98887185  0.69747014    -0.43600
C1409       C  0.39888274  0.14306698  0.66175382     0.00000
C1410       C  0.38823864  0.16350975  0.67694688    -0.11900
C1411       C  0.40436907  0.18274760  0.68845636     0.02300
C1412       C  0.43198144  0.18168831  0.68496954    -0.00100
C1413       C  0.44249002  0.16125281  0.66944740    -0.11800
C1414       C  0.42626284  0.14212263  0.65786166     0.02100
H1415       H  0.36715959  0.16413960  0.68022651     0.15100
H1416       H  0.46354762  0.16015722  0.66625038     0.15100
C1417       C  0.43835448  0.12103961  0.64321480     0.36800
C1418       C  0.39195729  0.20266072  0.70442609     0.36700
N1419       N  0.44823959  0.10418028  0.63157437    -0.43600
N1420       N  0.38190886  0.21856519  0.71721680    -0.43600
C1421       C  0.55807398  0.19775270  0.64344620     0.00000
C1422       C  0.57174914  0.17750873  0.65673634    -0.11900
C1423       C  0.59155654  0.16292522  0.64441913     0.02300
C1424       C  0.59802159  0.16818598  0.61808105    -0.00100
C1425       C  0.58384228  0.18760297  0.60438571    -0.11800
C1426       C  0.56413706  0.20238533  0.61669743     0.02100
H1427       H  0.56760898  0.17343918  0.67723668     0.15100
H1428       H  0.58851615  0.19155065  0.58395974     0.15100
C1429       C  0.55096008  0.22229736  0.60131653     0.36800
C1430       C  0.60600723  0.14393950  0.65984482     0.36700
N1431       N  0.54051315  0.23825096  0.58887055    -0.43600
N1432       N  0.61749271  0.12882262  0.67241409    -0.43600
C1433       C  0.56607547  0.83552064  0.31396910     0.00000
C1434       C  0.59334761  0.83357264  0.30974628    -0.11900
C1435       C  0.61094361  0.85203425  0.32043899     0.02300
C1436       C  0.60149238  0.87311318  0.33589664    -0.00100
C1437       C  0.57446701  0.87461371  0.34102531    -0.11800
C1438       C  0.55675650  0.85625001  0.33021035     0.02100
H1439       H  0.60103476  0.81759065  0.29791327     0.15100
H1440       H  0.56705939  0.89052910  0.35308007     0.15100
C1441       C  0.52927051  0.85891253  0.33682453     0.36800
C1442       C  0.63874970  0.84850467  0.31582278     0.36700
N1443       N  0.50727263  0.86112266  0.34222232    -0.43600
N1444       N  0.66104006  0.84572103  0.31217624    -0.43600
C1445       C  0.43530728  0.81278724  0.34777622     0.00000
C1446       C  0.43151153  0.80898541  0.37485554    -0.11900
C1447       C  0.41068007  0.82110121  0.38799138     0.02300
C1448       C  0.39320988  0.83755330  0.37402585    -0.00100
C1449       C  0.39684079  0.84158490  0.34714976    -0.11800
C1450       C  0.41738792  0.82917659  0.33380548     0.02100
H1451       H  0.44493951  0.79664783  0.38592957     0.15100
H1452       H  0.38322709  0.85409964  0.33646757     0.15100
C1453       C  0.41871679  0.83307950  0.30568980     0.36800
C1454       C  0.40833346  0.81730195  0.41603624     0.36700
N1455       N  0.41963396  0.83616735  0.28316286    -0.43600
N1456       N  0.40637266  0.81434747  0.43850412    -0.43600
C1457       C  0.07339055  0.57007745  0.03872704     0.00000
C1458       C  0.06762898  0.59716376  0.03913672    -0.11900
C1459       C  0.08445209  0.61524783  0.05142335     0.02300
C1460       C  0.10754383  0.60642592  0.06396373    -0.00100
C1461       C  0.11354334  0.57953565  0.06368180    -0.11800
C1462       C  0.09687813  0.56134694  0.05112609     0.02100
H1463       H  0.04985178  0.60436446  0.02977846     0.15100
H1464       H  0.13142102  0.57276082  0.07319024     0.15100
C1465       C  0.10428327  0.53392119  0.05188986     0.36800
C1466       C  0.07728937  0.64272124  0.05111294     0.36700
N1467       N  0.11035923  0.51197606  0.05248758    -0.43600
N1468       N  0.07108139  0.66462829  0.05078725    -0.43600
C1469       C  0.93726532  0.54383466  0.07219565     0.00000
C1470       C  0.92263378  0.56563367  0.06383527    -0.11900
C1471       C  0.90490898  0.57837763  0.08056677     0.02300
C1472       C  0.90187113  0.56983584  0.10694472    -0.00100
C1473       C  0.91675594  0.54794199  0.11534540    -0.11800
C1474       C  0.93415502  0.53487987  0.09826552     0.02100
H1475       H  0.92465712  0.57247487  0.04372313     0.15100
H1476       H  0.91516297  0.54118649  0.13549075     0.15100
C1477       C  0.94944494  0.51316516  0.10832440     0.36800
C1478       C  0.88955135  0.59929411  0.06913116     0.36700
N1479       N  0.96176394  0.49581924  0.11643659    -0.43600
N1480       N  0.87788755  0.61598097  0.05895637    -0.43600
C1481       C  0.06212747  0.39798883  0.10043003     0.00000
C1482       C  0.06729714  0.42496409  0.10345711    -0.11900
C1483       C  0.05528222  0.44358620  0.08709176     0.02300
C1484       C  0.03779774  0.43531469  0.06714564    -0.00100
C1485       C  0.03240471  0.40837890  0.06416585    -0.11800
C1486       C  0.04453872  0.38968758  0.08051154     0.02100
H1487       H  0.08044623  0.43155040  0.11895441     0.15100
H1488       H  0.01933686  0.40190208  0.04855927     0.15100
C1489       C  0.03969378  0.36210386  0.07561728     0.36800
C1490       C  0.06045523  0.47119361  0.09166850     0.36700
N1491       N  0.03593142  0.33998196  0.07161100    -0.43600
N1492       N  0.06435651  0.49334530  0.09537262    -0.43600
C1493       C  0.93553716  0.61088035  0.90243380     0.00000
C1494       C  0.95782405  0.61943090  0.91676649    -0.11900
C1495       C  0.97108241  0.60262912  0.93429596     0.02300
C1496       C  0.96232049  0.57651666  0.93763537    -0.00100
C1497       C  0.93998131  0.56806277  0.92387063    -0.11800
C1498       C  0.92638881  0.58479653  0.90677773     0.02100
H1499       H  0.96493421  0.63942646  0.91445562     0.15100
H1500       H  0.93282869  0.54811439  0.92676911     0.15100
C1501       C  0.90326908  0.57387224  0.89444739     0.36800
C1502       C  0.99418203  0.61230104  0.94777328     0.36700
N1503       N  0.88450694  0.56426910  0.88574678    -0.43600
N1504       N  0.01274438  0.62000322  0.95854222    -0.43600
C1505       C  0.06391029  0.46557888  0.92809612     0.00000
C1506       C  0.09118242  0.46407557  0.93272961    -0.11900
C1507       C  0.10816623  0.45245724  0.91443501     0.02300
C1508       C  0.09808632  0.44201976  0.89079906    -0.00100
C1509       C  0.07096024  0.44294079  0.88613592    -0.11800
C1510       C  0.05381928  0.45447294  0.90445143     0.02100
H1511       H  0.09941138  0.47213072  0.95070129     0.15100
H1512       H  0.06315186  0.43460391  0.86809093     0.15100
C1513       C  0.02600601  0.45382870  0.89857898     0.36800
C1514       C  0.13589220  0.45131541  0.92051443     0.36700
N1515       N  0.00373648  0.45319838  0.89379665    -0.43600
N1516       N  0.15806153  0.45034271  0.92564405    -0.43600
C1517       C  0.89506937  0.40576389  0.93809005     0.00000
C1518       C  0.88727941  0.41901983  0.96122153    -0.11900
C1519       C  0.90468086  0.43562946  0.97500785     0.02300
C1520       C  0.93023506  0.44004239  0.96523442    -0.00100
C1521       C  0.93811822  0.42676122  0.94246587    -0.11800
C1522       C  0.92130765  0.40947994  0.92922116     0.02100
H1523       H  0.86738883  0.41674236  0.96850437     0.15100
H1524       H  0.95796946  0.42959058  0.93511692     0.15100
C1525       C  0.93266199  0.39551451  0.90733176     0.36800
C1526       C  0.89557860  0.44843167  0.99861484     0.36700
N1527       N  0.94268334  0.38513020  0.88976286    -0.43600
N1528       N  0.88832759  0.45855330  0.01764415    -0.43600
C1529       C  0.06630818  0.32987233  0.81495521     0.00000
C1530       C  0.08222146  0.32633982  0.83731077    -0.11900
C1531       C  0.09958359  0.34606419  0.84602809     0.02300
C1532       C  0.10107052  0.37043049  0.83258017    -0.00100
C1533       C  0.08505878  0.37396893  0.81020996    -0.11800
C1534       C  0.06790415  0.35408733  0.80133297     0.02100
H1535       H  0.08138774  0.30780849  0.84788762     0.15100
H1536       H  0.08551625  0.39261299  0.79983613     0.15100
C1537       C  0.05124671  0.35964442  0.77899136     0.36800
C1538       C  0.11630617  0.34003559  0.86817321     0.36700
N1539       N  0.03785524  0.36419951  0.76113846    -0.43600
N1540       N  0.12949514  0.33480268  0.88598623    -0.43600
C1541       C  0.93794201  0.31015833  0.84868904     0.00000
C1542       C  0.93979618  0.31177996  0.87621599    -0.11900
C1543       C  0.92174195  0.32674240  0.89062964     0.02300
C1544       C  0.90167186  0.34066574  0.87744787    -0.00100
C1545       C  0.89998853  0.33949914  0.85017780    -0.11800
C1546       C  0.91810708  0.32502959  0.83562394     0.02100
H1547       H  0.95477789  0.30069741  0.88659701     0.15100
H1548       H  0.88377527  0.34914385  0.84023136     0.15100
C1549       C  0.91537144  0.32592124  0.80733950     0.36800
C1550       C  0.92373828  0.32713081  0.91895627     0.36700
N1551       N  0.91305489  0.32671841  0.78471186    -0.43600
N1552       N  0.92520830  0.32752017  0.94165748    -0.43600
C1553       C  0.81750641  0.43904830  0.82257727     0.00000
C1554       C  0.84327765  0.42925204  0.82179347    -0.11900
C1555       C  0.85331422  0.41279526  0.84148851     0.02300
C1556       C  0.83749251  0.40574767  0.86346770    -0.00100
C1557       C  0.81159050  0.41594177  0.86420518    -0.11800
C1558       C  0.80143290  0.43187690  0.84400448     0.02100
H1559       H  0.85585793  0.43434572  0.80533556     0.15100
H1560       H  0.79900321  0.41188831  0.88085612     0.15100
C1561       C  0.77462659  0.44096664  0.84622763     0.36800
C1562       C  0.87990081  0.40387720  0.83749879     0.36700
N1563       N  0.75307588  0.44806837  0.84797064    -0.43600
N1564       N  0.90146982  0.39786173  0.83343338    -0.43600
C1565       C  0.87516408  0.60783520  0.83396446     0.00000
C1566       C  0.88683097  0.58319938  0.82974978    -0.11900
C1567       C  0.87466234  0.56421922  0.81376140     0.02300
C1568       C  0.85046540  0.57013220  0.80128042    -0.00100
C1569       C  0.83953402  0.59535830  0.80484923    -0.11800
C1570       C  0.85185253  0.61420904  0.82053759     0.02100
H1571       H  0.90586207  0.57903451  0.83846642     0.15100
H1572       H  0.82145624  0.60074917  0.79486651     0.15100
C1573       C  0.84064097  0.64029940  0.82179527     0.36800
C1574       C  0.88757937  0.53913466  0.81057673     0.36700
N1575       N  0.83156954  0.66115299  0.82275825    -0.43600
N1576       N  0.89809458  0.51910305  0.80803760    -0.43600
C1577       C  0.13550032  0.34125043  0.10406606     0.00000
C1578       C  0.14233017  0.35690808  0.08216819    -0.11900
C1579       C  0.16270550  0.34964331  0.06501087     0.02300
C1580       C  0.17592417  0.32553702  0.06850779    -0.00100
C1581       C  0.16988519  0.31014629  0.09038622    -0.11800
C1582       C  0.15036401  0.31776770  0.10827689     0.02100
H1583       H  0.13191994  0.37501949  0.07817342     0.15100
H1584       H  0.18058898  0.29194007  0.09354119     0.15100
C1585       C  0.14722668  0.30092713  0.13084984     0.36800
C1586       C  0.17130015  0.36826986  0.04536236     0.36700
N1587       N  0.14521964  0.28657097  0.14839547    -0.43600
N1588       N  0.17879033  0.38350501  0.03019090    -0.43600
C1589       C  0.19535966  0.36671571  0.93954629     0.00000
C1590       C  0.20708972  0.36782578  0.91478115    -0.11900
C1591       C  0.19302382  0.37671271  0.89295581     0.02300
C1592       C  0.16718289  0.38679672  0.89609863    -0.00100
C1593       C  0.15530813  0.38517568  0.92093913    -0.11800
C1594       C  0.16890473  0.37453664  0.94242075     0.02100
H1595       H  0.22682434  0.36011923  0.91217669     0.15100
H1596       H  0.13543090  0.39230186  0.92372284     0.15100
C1597       C  0.15503943  0.37135166  0.96692504     0.36800
C1598       C  0.20507860  0.37336543  0.86747055     0.36700
N1599       N  0.14333446  0.36859967  0.98621193    -0.43600
N1600       N  0.21481072  0.37064209  0.84710423    -0.43600
C1601       C  0.89801362  0.14041845  0.82998403     0.00000
C1602       C  0.88697009  0.16434961  0.82189856    -0.11900
C1603       C  0.90251647  0.18430174  0.81073442     0.02300
C1604       C  0.92991259  0.18029829  0.80697959    -0.00100
C1605       C  0.94065060  0.15583109  0.81459346    -0.11800
C1606       C  0.92500772  0.13604059  0.82587708     0.02100
H1607       H  0.86598226  0.16740518  0.82426398     0.15100
H1608       H  0.96145515  0.15205380  0.81189051     0.15100
C1609       C  0.93689360  0.11102492  0.83217961     0.36800
C1610       C  0.88951520  0.20842737  0.80325985     0.36700
N1611       N  0.94643044  0.09092418  0.83702220    -0.43600
N1612       N  0.87894066  0.22771513  0.79736572    -0.43600
C1613       C  0.89969783  0.06919715  0.88964434     0.00000
C1614       C  0.92112959  0.08401759  0.89895044    -0.11900
C1615       C  0.93758143  0.07465500  0.91895746     0.02300
C1616       C  0.93442250  0.04867862  0.92872752    -0.00100
C1617       C  0.91315034  0.03367481  0.91932838    -0.11800
C1618       C  0.89532092  0.04395303  0.90088448     0.02100
H1619       H  0.92501649  0.10339410  0.89097347     0.15100
H1620       H  0.90966147  0.01418938  0.92734556     0.15100
C1621       C  0.87179213  0.02881645  0.89573447     0.36800
C1622       C  0.95651537  0.09296050  0.92972510     0.36700
N1623       N  0.85289602  0.01664977  0.89185818    -0.43600
N1624       N  0.97094122  0.10818130  0.93869097    -0.43600
C1625       C  0.82864869  0.07058958  0.81648770     0.00000
C1626       C  0.82367088  0.04331203  0.81862787    -0.11900
C1627       C  0.80180459  0.03173338  0.80640444     0.02300
C1628       C  0.78444949  0.04738508  0.79146448    -0.00100
C1629       C  0.79023667  0.07399379  0.78766121    -0.11800
C1630       C  0.81165958  0.08577003  0.80017395     0.02100
H1631       H  0.83560890  0.03089920  0.83101942     0.15100
H1632       H  0.77703350  0.08606978  0.77600285     0.15100
C1633       C  0.81424438  0.11397756  0.79735270     0.36800
C1634       C  0.79763319  0.00375380  0.80958440     0.36700
N1635       N  0.81619444  0.13656605  0.79501724    -0.43600
N1636       N  0.79439151  0.98133406  0.81213169    -0.43600
C1637       C  0.05999971  0.90152338  0.90064562     0.00000
C1638       C  0.07061138  0.92700233  0.90248288    -0.11900
C1639       C  0.05925356  0.94621186  0.91862758     0.02300
C1640       C  0.03631676  0.94040069  0.93330158    -0.00100
C1641       C  0.02548581  0.91501156  0.93143447    -0.11800
C1642       C  0.03730630  0.89551103  0.91574533     0.02100
H1643       H  0.08778569  0.93219163  0.89101421     0.15100
H1644       H  0.00832972  0.91006660  0.94309285     0.15100
C1645       C  0.02660334  0.86918286  0.91689221     0.36800
C1646       C  0.07137146  0.97197291  0.91925955     0.36700
N1647       N  0.01802002  0.84808090  0.91790425    -0.43600
N1648       N  0.08117644  0.99255580  0.91981473    -0.43600
C1649       C  0.89421889  0.90898140  0.06112126     0.00000
C1650       C  0.88524556  0.92712850  0.04218105    -0.11900
C1651       C  0.90252551  0.94518004  0.03027000     0.02300
C1652       C  0.92945647  0.94510023  0.03698023    -0.00100
C1653       C  0.93837703  0.92727744  0.05603761    -0.11800
C1654       C  0.92123250  0.90927640  0.06798457     0.02100
H1655       H  0.86451888  0.92764047  0.03711569     0.15100
H1656       H  0.95905605  0.92719901  0.06140115     0.15100
C1657       C  0.93251886  0.89090418  0.08641905     0.36800
C1658       C  0.89191777  0.96466131  0.01254096     0.36700
N1659       N  0.94247118  0.87663047  0.10109072    -0.43600
N1660       N  0.88339866  0.98048617  0.99856012    -0.43600
C1661       C  0.96174140  0.08175647  0.06474128     0.00000
C1662       C  0.96830425  0.10858670  0.06254069    -0.11900
C1663       C  0.95701312  0.12747715  0.07923488     0.02300
C1664       C  0.93841339  0.11968350  0.09833263    -0.00100
C1665       C  0.93166264  0.09298364  0.10033307    -0.11800
C1666       C  0.94309006  0.07408009  0.08395721     0.02100
H1667       H  0.98245455  0.11481785  0.04786453     0.15100
H1668       H  0.91750465  0.08674812  0.11501382     0.15100
C1669       C  0.93450383  0.04709317  0.08688122     0.36800
C1670       C  0.96432637  0.15474282  0.07586897     0.36700
N1671       N  0.92758373  0.02550169  0.08929686    -0.43600
N1672       N  0.97028689  0.17658747  0.07323557    -0.43600
C1673       C  0.06593200  0.97435627  0.06979211     0.00000
C1674       C  0.06402652  0.98186516  0.09632223    -0.11900
C1675       C  0.07943065  0.96972298  0.11573141     0.02300
C1676       C  0.09678159  0.94919281  0.10877462    -0.00100
C1677       C  0.09887998  0.94192978  0.08223914    -0.11800
C1678       C  0.08389240  0.95433184  0.06279150     0.02100
H1679       H  0.05033259  0.99720826  0.10195003     0.15100
H1680       H  0.11243485  0.92649807  0.07655449     0.15100
C1681       C  0.08660382  0.94519173  0.03603194     0.36800
C1682       C  0.07625462  0.97805227  0.14266334     0.36700
N1683       N  0.08882078  0.93784550  0.01461269    -0.43600
N1684       N  0.07373431  0.98479762  0.16424005    -0.43600
C1685       C  0.09689386  0.16961115  0.87494115     0.00000
C1686       C  0.09477249  0.16628788  0.84779296    -0.11900
C1687       C  0.07501920  0.17919114  0.83361206     0.02300
C1688       C  0.05681906  0.19574262  0.84694387    -0.00100
C1689       C  0.05808504  0.19742491  0.87445238    -0.11800
C1690       C  0.07781663  0.18444278  0.88847410     0.02100
H1691       H  0.10940074  0.15467489  0.83750305     0.15100
H1692       H  0.04392535  0.20930361  0.88505557     0.15100
C1693       C  0.07826649  0.18675726  0.91676982     0.36800
C1694       C  0.07514157  0.17611137  0.80535709     0.36700
N1695       N  0.07867814  0.18851042  0.93944622    -0.43600
N1696       N  0.07532724  0.17357623  0.78274107    -0.43600
C1697       C  0.10719105  0.10951780  0.93588944     0.00000
C1698       C  0.08119466  0.10875565  0.92659146    -0.11900
C1699       C  0.06250146  0.09204408  0.93795229     0.02300
C1700       C  0.06936134  0.07638232  0.95984311    -0.00100
C1701       C  0.09548533  0.07678509  0.96889886    -0.11800
C1702       C  0.11442593  0.09293896  0.95698770     0.02100
H1703       H  0.07549587  0.12095442  0.91004047     0.15100
H1704       H  0.10120671  0.06416291  0.98512373     0.15100
C1705       C  0.14138655  0.09087578  0.96569822     0.36800
C1706       C  0.03740327  0.08936276  0.92494537     0.36700
N1707       N  0.16304328  0.08913769  0.97253597    -0.43600
N1708       N  0.01776018  0.08683476  0.91370510    -0.43600
C1709       C  0.17607541  0.18409740  0.93038573     0.00000
C1710       C  0.17487535  0.18927576  0.95764138    -0.11900
C1711       C  0.18747662  0.21115289  0.96876102     0.02300
C1712       C  0.20223684  0.22834931  0.95284993    -0.00100
C1713       C  0.20459537  0.22291173  0.92599037    -0.11800
C1714       C  0.19139214  0.20148340  0.91459603     0.02100
H1715       H  0.16334629  0.17722537  0.97067486     0.15100
H1716       H  0.21597714  0.23609692  0.91364568     0.15100
C1717       C  0.19291625  0.19876689  0.88635188     0.36800
C1718       C  0.18516065  0.21537290  0.99675301     0.36700
N1719       N  0.19406514  0.19668437  0.86372458    -0.43600
N1720       N  0.18332044  0.21879508  0.01916428    -0.43600
C1721       C  0.28578249  0.05261007  0.70542723     0.00000
C1722       C  0.29288569  0.04133784  0.68129048    -0.11900
C1723       C  0.31441514  0.05049132  0.66701824     0.02300
C1724       C  0.32995323  0.07162895  0.67675778    -0.00100
C1725       C  0.32360435  0.08186486  0.70178507    -0.11800
C1726       C  0.30203284  0.07253307  0.71612706     0.02100
H1727       H  0.28118813  0.02546445  0.67302885     0.15100
H1728       H  0.33418176  0.09832259  0.71001653     0.15100
C1729       C  0.29668807  0.08475813  0.74120763     0.36800
C1730       C  0.31917854  0.03812287  0.64191085     0.36700
N1731       N  0.29263256  0.09462685  0.76130234    -0.43600
N1732       N  0.32300167  0.02772132  0.62204265    -0.43600
C1733       C  0.18242214  0.07523696  0.82319650     0.00000
C1734       C  0.16449208  0.06628340  0.84217480    -0.11900
C1735       C  0.15638630  0.08254669  0.86289696     0.02300
C1736       C  0.16562398  0.10879025  0.86450729    -0.00100
C1737       C  0.18386762  0.11762067  0.84566862    -0.11800
C1738       C  0.19240784  0.10110285  0.82526063     0.02100
H1739       H  0.15711503  0.04624647  0.84105962     0.15100
H1740       H  0.19104363  0.13772571  0.84651719     0.15100
C1741       C  0.21040539  0.11158689  0.80598720     0.36800
C1742       C  0.13966346  0.07118441  0.88282124     0.36700
N1743       N  0.22479684  0.12002096  0.79051365    -0.43600
N1744       N  0.12639785  0.06163697  0.89865308    -0.43600
C1745       C  0.12263024  0.90708701  0.83603811     0.00000
C1746       C  0.11287193  0.93281226  0.83377927    -0.11900
C1747       C  0.12596449  0.95171499  0.81836784     0.02300
C1748       C  0.14899100  0.94466814  0.80439672    -0.00100
C1749       C  0.15899466  0.91902731  0.80756911    -0.11800
C1750       C  0.14619906  0.90044957  0.82322997     0.02100
H1751       H  0.09459469  0.93793120  0.84344676     0.15100
H1752       H  0.17680347  0.91316839  0.79744146     0.15100
C1753       C  0.15780519  0.87466855  0.82582278     0.36800
C1754       C  0.11557770  0.97813781  0.81772275     0.36700
N1755       N  0.16771082  0.85429112  0.82797876    -0.43600
N1756       N  0.10733389  0.99936302  0.81737628    -0.43600
C1757       C  0.79512646  0.29076113  0.95460724     0.00000
C1758       C  0.79235363  0.29677258  0.92797056    -0.11900
C1759       C  0.80625755  0.31769324  0.91673316     0.02300
C1760       C  0.82241704  0.33432119  0.93261628    -0.00100
C1761       C  0.82377862  0.32885481  0.95978700    -0.11800
C1762       C  0.81070392  0.30717793  0.97068308     0.02100
H1763       H  0.78054957  0.28401482  0.91551560     0.15100
H1764       H  0.83624610  0.34017056  0.97270802     0.15100
C1765       C  0.81402429  0.30194256  0.99841724     0.36800
C1766       C  0.80507400  0.32004767  0.88843579     0.36700
N1767       N  0.81685354  0.29767706  0.02058982    -0.43600
N1768       N  0.80417910  0.32175281  0.86576259    -0.43600
C1769       C  0.82811891  0.19552388  0.06613837     0.00000
C1770       C  0.82209235  0.19255447  0.09301496    -0.11900
C1771       C  0.84046189  0.18218956  0.11081997     0.02300
C1772       C  0.86563745  0.17481740  0.10205153    -0.00100
C1773       C  0.87181878  0.17739708  0.07539924    -0.11800
C1774       C  0.85347164  0.18753177  0.05741719     0.02100
H1775       H  0.80276544  0.19790414  0.10020599     0.15100
H1776       H  0.89124725  0.17172585  0.06866167     0.15100
C1777       C  0.86152652  0.18930028  0.03026239     0.36800
C1778       C  0.83264924  0.17834565  0.13780173     0.36700
N1779       N  0.86809196  0.19056892  0.00852386    -0.43600
N1780       N  0.82602602  0.17497848  0.15928839    -0.43600
C1781       C  0.80546697  0.15080683  0.93808405     0.00000
C1782       C  0.82598932  0.16407355  0.92483889    -0.11900
C1783       C  0.83987426  0.15229983  0.90423231     0.02300
C1784       C  0.83358797  0.12647734  0.89637268    -0.00100
C1785       C  0.81374330  0.11279328  0.91004413    -0.11800
C1786       C  0.79965948  0.12460623  0.93056518     0.02100
H1787       H  0.83097373  0.18416527  0.93009534     0.15100
H1788       H  0.80902766  0.09270008  0.90450466     0.15100
C1789       C  0.77931888  0.10927302  0.94314286     0.36800
C1790       C  0.85950094  0.16783188  0.89082355     0.36700
N1791       N  0.76302669  0.09685331  0.95309777    -0.43600
N1792       N  0.87523500  0.18062458  0.88047008    -0.43600
C1793       C  0.09903422  0.87413453  0.16463890     0.00000
C1794       C  0.11009563  0.85087567  0.17449012    -0.11900
C1795       C  0.09433094  0.83089634  0.18531687     0.02300
C1796       C  0.06662841  0.83423027  0.18712031    -0.00100
C1797       C  0.05572797  0.85773022  0.17708290    -0.11800
C1798       C  0.07156059  0.87740935  0.16580425     0.02100
H1799       H  0.13126828  0.84830809  0.17366005     0.15100
H1800       H  0.03464141  0.86080650  0.17783931     0.15100
C1801       C  0.05915227  0.90109531  0.15625960     0.36800
C1802       C  0.10741461  0.80727563  0.19413097     0.36700
N1803       N  0.04894817  0.91996984  0.14865708    -0.43600
N1804       N  0.11803164  0.78833440  0.20099215    -0.43600
C1805       C  0.93570857  0.68147291  0.18381315     0.00000
C1806       C  0.90841258  0.68464812  0.18595036    -0.11900
C1807       C  0.89111849  0.66541429  0.17619179     0.02300
C1808       C  0.90111684  0.64222085  0.16461797    -0.00100
C1809       C  0.92839573  0.63900618  0.16247714    -0.11800
C1810       C  0.94570074  0.65845759  0.17185380     0.02100
H1811       H  0.90059543  0.70266042  0.19428663     0.15100
H1812       H  0.93616377  0.62117167  0.15372414     0.15100
C1813       C  0.97366944  0.65414627  0.16957521     0.36800
C1814       C  0.86323905  0.67076885  0.17649060     0.36700
N1815       N  0.99609245  0.65063194  0.16790440    -0.43600
N1816       N  0.84095787  0.67540593  0.17618487    -0.43600
C1817       C  0.93773846  0.81136514  0.14598940     0.00000
C1818       C  0.92510591  0.83281966  0.15831464    -0.11900
C1819       C  0.90522092  0.84710853  0.14567418     0.02300
C1820       C  0.89780826  0.84046515  0.11984136    -0.00100
C1821       C  0.91046264  0.81925649  0.10736755    -0.11800
C1822       C  0.92991667  0.80455081  0.12014883     0.02100
H1823       H  0.93034740  0.83829834  0.17824934     0.15100
H1824       H  0.90506073  0.81404079  0.08738889     0.15100
C1825       C  0.94090434  0.78239868  0.10619741     0.36800
C1826       C  0.89197359  0.86755602  0.16022703     0.36700
N1827       N  0.94946054  0.76456710  0.09494071    -0.43600
N1828       N  0.88144327  0.88385811  0.17209382    -0.43600
C1829       C  0.06484741  0.70669367  0.14863436     0.00000
C1830       C  0.09154150  0.70847007  0.15571211    -0.11900
C1831       C  0.11046595  0.69267653  0.14376350     0.02300
C1832       C  0.10288530  0.67407387  0.12461393    -0.00100
C1833       C  0.07619183  0.67149473  0.11806264    -0.11800
C1834       C  0.05720090  0.68803332  0.12941008     0.02100
H1835       H  0.09780132  0.72258770  0.17047389     0.15100
H1836       H  0.07028736  0.65719280  0.10342650     0.15100
C1837       C  0.03021237  0.68543317  0.12089412     0.36800
C1838       C  0.13763133  0.69575918  0.15167345     0.36700
N1839       N  0.00864339  0.68346272  0.11380709    -0.43600
N1840       N  0.15939285  0.69815443  0.15798481    -0.43600
C1841       C  0.70258982  0.15381456  0.06650125     0.00000
C1842       C  0.68191034  0.13766022  0.05770922    -0.11900
C1843       C  0.66536539  0.12473724  0.07565466     0.02300
C1844       C  0.66974202  0.12764708  0.10292269    -0.00100
C1845       C  0.69054868  0.14367412  0.11158931    -0.11800
C1846       C  0.70681850  0.15675803  0.09379593     0.02100
H1847       H  0.67846363  0.13540769  0.03678455     0.15100
H1848       H  0.69419986  0.14587174  0.13250402     0.15100
C1849       C  0.72831974  0.17228911  0.10417211     0.36800
C1850       C  0.64487893  0.10788875  0.06544113     0.36700
N1851       N  0.74553586  0.18467927  0.11255133    -0.43600
N1852       N  0.62859734  0.09449060  0.05676366    -0.43600
C1853       C  0.59969987  0.06895197  0.10638692     0.00000
C1854       C  0.57797169  0.08367826  0.09796700    -0.11900
C1855       C  0.56042838  0.07388323  0.07912471     0.02300
C1856       C  0.56330221  0.04783820  0.06939530    -0.00100
C1857       C  0.58490483  0.03295640  0.07802820    -0.11800
C1858       C  0.60341877  0.04344822  0.09562853     0.02100
H1859       H  0.57472818  0.10322703  0.10584891     0.15100
H1860       H  0.58801837  0.01336742  0.07014088     0.15100
C1861       C  0.62681584  0.02815465  0.10066794     0.36800
C1862       C  0.54041927  0.09169839  0.06968549     0.36700
N1863       N  0.64555964  0.01584522  0.10458595    -0.43600
N1864       N  0.52499329  0.10646629  0.06180090    -0.43600
C1865       C  0.62115194  0.10843731  0.83145643     0.00000
C1866       C  0.64565912  0.09989014  0.84058043    -0.11900
C1867       C  0.65887214  0.07904507  0.82837199     0.02300
C1868       C  0.64743092  0.06609053  0.80628305    -0.00100
C1869       C  0.62256952  0.07443333  0.79758666    -0.11800
C1870       C  0.60939755  0.09521390  0.80986123     0.02100
H1871       H  0.65475700  0.10981875  0.85716530     0.15100
H1872       H  0.61326396  0.06476185  0.78097965     0.15100
C1873       C  0.58336119  0.10164964  0.80040679     0.36800
C1874       C  0.68419277  0.07186528  0.83912769     0.36700
N1875       N  0.56258348  0.10685451  0.79266082    -0.43600
N1876       N  0.70447969  0.06630345  0.84786883    -0.43600
C1877       C  0.63704646  0.16928847  0.89909258     0.00000
C1878       C  0.63539671  0.16263023  0.92575833    -0.11900
C1879       C  0.65474664  0.17107487  0.94361302     0.02300
C1880       C  0.67622172  0.18645625  0.93477113    -0.00100
C1881       C  0.67787110  0.19299577  0.90805906    -0.11800
C1882       C  0.65870652  0.18430700  0.89019409     0.02100
H1883       H  0.61865266  0.15135940  0.93272904     0.15100
H1884       H  0.69459321  0.20424462  0.90100676     0.15100
C1885       C  0.66235113  0.18993543  0.86261569     0.36800
C1886       C  0.65153956  0.16468581  0.97108200     0.36700
N1887       N  0.66543861  0.19419005  0.84048689    -0.43600
N1888       N  0.64885449  0.15969073  0.99311106    -0.43600
C1889       C  0.56326681  0.11488904  0.89944994     0.00000
C1890       C  0.54637933  0.12499340  0.91881836    -0.11900
C1891       C  0.53306210  0.10825868  0.93631661     0.02300
C1892       C  0.53638323  0.08063555  0.93449241    -0.00100
C1893       C  0.55312273  0.07067506  0.91494726    -0.11800
C1894       C  0.56648460  0.08734868  0.89762094     0.02100
H1895       H  0.54365504  0.14611724  0.92034922     0.15100
H1896       H  0.55603310  0.04958835  0.91323050     0.15100
C1897       C  0.58237189  0.07513555  0.87762330     0.36800
C1898       C  0.51569895  0.12005468  0.95538906     0.36700
N1899       N  0.59473181  0.06417914  0.86202271    -0.43600
N1900       N  0.50178318  0.12957852  0.97063898    -0.43600
C1901       C  0.54272276  0.21153752  0.78515882     0.00000
C1902       C  0.56462842  0.22283087  0.79756034    -0.11900
C1903       C  0.57613208  0.21135000  0.81975015     0.02300
C1904       C  0.56500577  0.18819094  0.83101904    -0.00100
C1905       C  0.54219544  0.17773124  0.81893077    -0.11800
C1906       C  0.53102605  0.18905963  0.79653033     0.02100
H1907       H  0.57374134  0.24020553  0.78909184     0.15100
H1908       H  0.53383244  0.15936997  0.82584072     0.15100
C1909       C  0.50782992  0.17670337  0.78556134     0.36800
C1910       C  0.60006870  0.22359751  0.82887608     0.36700
N1911       N  0.48928308  0.16670214  0.77683750    -0.43600
N1912       N  0.61905659  0.23425371  0.83566194    -0.43600
C1913       C  0.38659635  0.10525745  0.05986654     0.00000
C1914       C  0.41246443  0.10501870  0.06949151    -0.11900
C1915       C  0.43145390  0.08841855  0.05869553     0.02300
C1916       C  0.42513117  0.07233480  0.03691768    -0.00100
C1917       C  0.39908937  0.07205513  0.02759273    -0.11800
C1918       C  0.37978519  0.08811176  0.03902914     0.02100
H1919       H  0.41794003  0.11769578  0.08576729     0.15100
H1920       H  0.39376199  0.05913408  0.01145383     0.15100
C1921       C  0.35295816  0.08544684  0.03005022     0.36800
C1922       C  0.45648780  0.08661669  0.07197843     0.36700
N1923       N  0.33143958  0.08303399  0.02296082    -0.43600
N1924       N  0.47614769  0.08484402  0.08331920    -0.43600
C1925       C  0.31751387  0.17987889  0.06304521     0.00000
C1926       C  0.30929847  0.20090065  0.07917824    -0.11900
C1927       C  0.29647024  0.22288627  0.06892452     0.02300
C1928       C  0.29047333  0.22396463  0.04183329    -0.00100
C1929       C  0.29591499  0.20189052  0.02617776    -0.11800
C1930       C  0.30863231  0.17969195  0.03655149     0.02100
H1931       H  0.31427831  0.20080877  0.09993348     0.15100
H1932       H  0.28985191  0.20182611  0.00571253     0.15100
C1933       C  0.30977756  0.15678110  0.01990356     0.36800
C1934       C  0.29128544  0.24457007  0.08656653     0.36700
N1935       N  0.31011564  0.13865350  0.00611911    -0.43600
N1936       N  0.28720025  0.26190986  0.10074025    -0.43600
C1937       C  0.46174826  0.93977255  0.06606043     0.00000
C1938       C  0.47020803  0.91350389  0.06544643    -0.11900
C1939       C  0.45842322  0.89434902  0.08152992     0.02300
C1940       C  0.43823095  0.90155995  0.09924978    -0.00100
C1941       C  0.43023950  0.92801177  0.10016707    -0.11800
C1942       C  0.44159106  0.94698387  0.08369847     0.02100
H1943       H  0.48533994  0.90773214  0.05159937     0.15100
H1944       H  0.41510471  0.93398606  0.11391545     0.15100
C1945       C  0.43260998  0.97388510  0.08570444     0.36800
C1946       C  0.46634378  0.86727719  0.07823254     0.36700
N1947       N  0.42543129  0.99543600  0.08734653    -0.43600
N1948       N  0.47267552  0.84557351  0.07550702    -0.43600
C1949       C  0.43211743  0.82777270  0.16945038     0.00000
C1950       C  0.45957949  0.82428179  0.17141191    -0.11900
C1951       C  0.47070384  0.81046916  0.19253947     0.02300
C1952       C  0.45441632  0.79955087  0.21208107    -0.00100
C1953       C  0.42714176  0.80047426  0.20889544    -0.11800
C1954       C  0.41587786  0.81430473  0.18793450     0.02100
H1955       H  0.47279377  0.83285122  0.15723490     0.15100
H1956       H  0.41454902  0.79149671  0.22359644     0.15100
C1957       C  0.38747309  0.81572409  0.18702706     0.36800
C1958       C  0.49893860  0.80743965  0.19367027     0.36700
N1959       N  0.36474307  0.81694216  0.18635348    -0.43600
N1960       N  0.52152871  0.80475340  0.19455497    -0.43600
C1961       C  0.66306918  0.90469558  0.86474505     0.00000
C1962       C  0.65959071  0.89746687  0.83837558    -0.11900
C1963       C  0.67066360  0.91249942  0.81796375     0.02300
C1964       C  0.68547669  0.93547708  0.82387865    -0.00100
C1965       C  0.68882669  0.94252141  0.85044744    -0.11800
C1966       C  0.67806625  0.92727665  0.87072738     0.02100
H1967       H  0.64852689  0.87979548  0.83373025     0.15100
H1968       H  0.69996064  0.96005743  0.85547392     0.15100
C1969       C  0.68224338  0.93544561  0.89761357     0.36800
C1970       C  0.66576280  0.90420324  0.79124073     0.36700
N1971       N  0.68540867  0.94200508  0.91917660    -0.43600
N1972       N  0.66177197  0.89744421  0.76986699    -0.43600
C1973       C  0.60696279  0.91054703  0.93797374     0.00000
C1974       C  0.59501607  0.90336510  0.96192181    -0.11900
C1975       C  0.57706830  0.92006238  0.97465562     0.02300
C1976       C  0.57046981  0.94462437  0.96337235    -0.00100
C1977       C  0.58267181  0.95193386  0.93968741    -0.11800
C1978       C  0.60077157  0.93541265  0.92709765     0.02100
H1979       H  0.59910446  0.88423089  0.97043796     0.15100
H1980       H  0.57813533  0.97086648  0.93091819     0.15100
C1981       C  0.61294384  0.94511626  0.90340500     0.36800
C1982       C  0.56484498  0.91084741  0.99855624     0.36700
N1983       N  0.62219307  0.95340512  0.88435106    -0.43600
N1984       N  0.55506005  0.90340986  0.01769999    -0.43600
C1985       C  0.43731141  0.96917110  0.92673551     0.00000
C1986       C  0.41915541  0.95041630  0.93565535    -0.11900
C1987       C  0.40247630  0.93706305  0.91834374     0.02300
C1988       C  0.40348838  0.94246471  0.89105839    -0.00100
C1989       C  0.42208497  0.96095111  0.88200165    -0.11800
C1990       C  0.43895692  0.97421240  0.89947272     0.02100
H1991       H  0.41795951  0.94604404  0.95650541     0.15100
H1992       H  0.42329489  0.96526683  0.86116146     0.15100
C1993       C  0.45689483  0.99359294  0.88895650     0.36800
C1994       C  0.38417434  0.91878453  0.92997959     0.36700
N1995       N  0.47122885  0.00914615  0.88047997    -0.43600
N1996       N  0.37028819  0.90422392  0.94062905    -0.43600
C1997       C  0.29037637  0.97099876  0.79183977     0.00000
C1998       C  0.29907304  0.98177726  0.81567885    -0.11900
C1999       C  0.32029979  0.97094716  0.82936901     0.02300
C2000       C  0.33355912  0.94843455  0.81938468    -0.00100
C2001       C  0.32635431  0.93945388  0.79407148    -0.11800
C2002       C  0.30525765  0.95066187  0.78026192     0.02100
H2003       H  0.28843776  0.99806477  0.82442576     0.15100
H2004       H  0.33587398  0.92272437  0.78520987     0.15100
C2005       C  0.29949090  0.94095891  0.75417746     0.36800
C2006       C  0.32692583  0.98282830  0.85432198     0.36700
N2007       N  0.29508521  0.93332016  0.73318583    -0.43600
N2008       N  0.33235537  0.99278990  0.87407058    -0.43600
C2009       C  0.20532641  0.72228753  0.04213880     0.00000
C2010       C  0.18011587  0.71565779  0.03298358    -0.11900
C2011       C  0.16632105  0.69409227  0.04296564     0.02300
C2012       C  0.17765848  0.67787038  0.06271503    -0.00100
C2013       C  0.20378626  0.68344594  0.07045114    -0.11800
C2014       C  0.21756249  0.70524181  0.06046390     0.02100
H2015       H  0.17052121  0.72793289  0.01839880     0.15100
H2016       H  0.21343671  0.67200001  0.08545651     0.15100
C2017       C  0.24381744  0.70994135  0.07036329     0.36800
C2018       C  0.13981585  0.69037516  0.03338043     0.36700
N2019       N  0.26484592  0.71357167  0.07837526    -0.43600
N2020       N  0.11870243  0.68776776  0.02524690    -0.43600
C2021       C  0.36340491  0.84635425  0.09914410     0.00000
C2022       C  0.34678665  0.82528296  0.10637306    -0.11900
C2023       C  0.32618213  0.81670438  0.09002097     0.02300
C2024       C  0.32109738  0.82978235  0.06606874    -0.00100
C2025       C  0.33745213  0.85093577  0.05887462    -0.11800
C2026       C  0.35866739  0.85893402  0.07473507     0.02100
H2027       H  0.34967279  0.81549392  0.12508537     0.15100
H2028       H  0.33412381  0.86083117  0.04026359     0.15100
C2029       C  0.37590434  0.87904257  0.06444815     0.36800
C2030       C  0.31017435  0.79486549  0.09869536     0.36700
N2031       N  0.38950495  0.89517081  0.05583572    -0.43600
N2032       N  0.29743758  0.77727435  0.10560722    -0.43600
C2033       C  0.17324523  0.82239875  0.93070877     0.00000
C2034       C  0.14740580  0.81308016  0.93383188    -0.11900
C2035       C  0.12676161  0.82278055  0.91834429     0.02300
C2036       C  0.13161315  0.84259988  0.89948924    -0.00100
C2037       C  0.15724369  0.85253267  0.89681830    -0.11800
C2038       C  0.17807507  0.84245866  0.91196273     0.02100
H2039       H  0.14330473  0.79807209  0.94843929     0.15100
H2040       H  0.16107799  0.86795861  0.88260480     0.15100
C2041       C  0.20393507  0.85380103  0.90853869     0.36800
C2042       C  0.10058497  0.81262360  0.92274764     0.36700
N2043       N  0.22463161  0.86293080  0.90576613    -0.43600
N2044       N  0.07959597  0.80449376  0.92624092    -0.43600
C2045       C  0.30179581  0.86373415  0.93773657     0.00000
C2046       C  0.29760708  0.89066416  0.93350292    -0.11900
C2047       C  0.31181327  0.90434408  0.91424119     0.02300
C2048       C  0.33059738  0.89095529  0.89863626    -0.00100
C2049       C  0.33586466  0.86446518  0.90391339    -0.11800
C2050       C  0.32187378  0.85084114  0.92328122     0.02100
H2051       H  0.28268046  0.90091626  0.94473407     0.15100
H2052       H  0.35064347  0.85419342  0.89249480     0.15100
C2053       C  0.32886674  0.82367771  0.92799455     0.36800
C2054       C  0.30718194  0.93223783  0.91158317     0.36700
N2055       N  0.33452540  0.80193152  0.93173305    -0.43600
N2056       N  0.30322601  0.95459095  0.90980842    -0.43600
C2057       C  0.18686096  0.86189062  0.05736119     0.00000
C2058       C  0.18697641  0.88953451  0.05768040    -0.11900
C2059       C  0.17258827  0.90349115  0.07651687     0.02300
C2060       C  0.15821306  0.88979430  0.09588414    -0.00100
C2061       C  0.15671423  0.86237843  0.09480708    -0.11800
C2062       C  0.17070165  0.84829316  0.07576671     0.02100
H2063       H  0.19837907  0.90030979  0.04323301     0.15100
H2064       H  0.14555072  0.85187877  0.10966535     0.15100
C2065       C  0.16884566  0.81990482  0.07664857     0.36800
C2066       C  0.17244638  0.93188270  0.07532897     0.36700
N2067       N  0.16714583  0.79718382  0.07740491    -0.43600
N2068       N  0.17204495  0.95462164  0.07404081    -0.43600
C2069       C  0.17086174  0.94387659  0.17620073     0.00000
C2070       C  0.18048428  0.93127768  0.19904667    -0.11900
C2071       C  0.20247404  0.94077267  0.21272214     0.02300
C2072       C  0.21564746  0.96352613  0.20378718    -0.00100
C2073       C  0.20633324  0.97617458  0.18112684    -0.11800
C2074       C  0.18473704  0.96645132  0.16709669     0.02100
H2075       H  0.17220492  0.91286213  0.20566072     0.15100
H2076       H  0.21637043  0.99359459  0.17388731     0.15100
C2077       C  0.17845543  0.97961312  0.14271793     0.36800
C2078       C  0.21216666  0.92548532  0.23464097     0.36700
N2079       N  0.17361093  0.99053951  0.12334428    -0.43600
N2080       N  0.21998492  0.91309847  0.25207234    -0.43600
C2081       C  0.32868475  0.10946480  0.13209413     0.00000
C2082       C  0.31136232  0.11972609  0.15103664    -0.11900
C2083       C  0.30150137  0.10392087  0.17141664     0.02300
C2084       C  0.30876853  0.07711266  0.17294973    -0.00100
C2085       C  0.32586668  0.06689520  0.15383261    -0.11800
C2086       C  0.33587473  0.08267905  0.13366598     0.02100
H2087       H  0.30569265  0.14028060  0.15005733     0.15100
H2088       H  0.33178849  0.04640387  0.15478226     0.15100
C2089       C  0.35278158  0.07038246  0.11451502     0.36800
C2090       C  0.28350507  0.11559202  0.18997606     0.36700
N2091       N  0.36637295  0.06008591  0.09948334    -0.43600
N2092       N  0.26906705  0.12497476  0.20482285    -0.43600
C2093       C  0.31643691  0.94292503  0.32256579     0.00000
C2094       C  0.30813247  0.91667713  0.32048243    -0.11900
C2095       C  0.31637605  0.89780526  0.33880929     0.02300
C2096       C  0.33205145  0.90541662  0.36047699    -0.00100
C2097       C  0.34053650  0.93160504  0.36247603    -0.11800
C2098       C  0.33313816  0.95028970  0.34359554     0.02100
H2099       H  0.29626372  0.91065705  0.30377210     0.15100
H2100       H  0.35286975  0.93748491  0.37889970     0.15100
C2101       C  0.34260425  0.97697532  0.34645592     0.36800
C2102       C  0.31074800  0.87047791  0.33344421     0.36700
N2103       N  0.35027074  0.99833581  0.34868191    -0.43600
N2104       N  0.30678940  0.84861617  0.32837370    -0.43600
C2105       C  0.38017561  0.91027647  0.16457670     0.00000
C2106       C  0.39476963  0.92569311  0.18237247    -0.11900
C2107       C  0.38285175  0.94579112  0.19699481     0.02300
C2108       C  0.35567385  0.95082700  0.19381831    -0.00100
C2109       C  0.34140897  0.93566408  0.17534458    -0.11800
C2110       C  0.35331956  0.91554371  0.16094233     0.02100
H2111       H  0.41555179  0.92169002  0.18514847     0.15100
H2112       H  0.32049407  0.93886057  0.17262006     0.15100
C2113       C  0.33708642  0.89945705  0.14399270     0.36800
C2114       C  0.39906495  0.96065007  0.21502143     0.36700
N2115       N  0.32387061  0.88658395  0.13059888    -0.43600
N2116       N  0.41217983  0.97245810  0.22945900    -0.43600
C2117       C  0.35118023  0.07406760  0.30389004     0.00000
C2118       C  0.37771338  0.06927999  0.31029031    -0.11900
C2119       C  0.39193693  0.08685135  0.32619072     0.02300
C2120       C  0.37962333  0.10961176  0.33607398    -0.00100
C2121       C  0.35335942  0.11445533  0.32991962    -0.11800
C2122       C  0.33882687  0.09677056  0.31470042     0.02100
H2123       H  0.38760365  0.05210905  0.30243700     0.15100
H2124       H  0.34430073  0.13261183  0.33651119     0.15100
C2125       C  0.31134164  0.10291535  0.31074177     0.36800
C2126       C  0.41942603  0.08175773  0.33122061     0.36700
N2127       N  0.28931708  0.10789604  0.30778964    -0.43600
N2128       N  0.44146373  0.07768986  0.33524102    -0.43600
C2129       C  0.53583129  0.79889289  0.71333353     0.00000
C2130       C  0.56300285  0.79730472  0.70915275    -0.11900
C2131       C  0.57498749  0.81023230  0.68814485     0.02300
C2132       C  0.55977162  0.82545885  0.67021585    -0.00100
C2133       C  0.53223789  0.82530765  0.67325590    -0.11800
C2134       C  0.52024204  0.81230076  0.69445757     0.02100
H2135       H  0.57532204  0.78675052  0.72302389     0.15100
H2136       H  0.51976098  0.83615563  0.65995268     0.15100
C2137       C  0.49189943  0.81343519  0.69626661     0.36800
C2138       C  0.60335386  0.80871620  0.68670732     0.36700
N2139       N  0.46919176  0.81439798  0.69763577    -0.43600
N2140       N  0.62605464  0.80736903  0.68570663    -0.43600
C2141       C  0.43050758  0.82917825  0.82049268     0.00000
C2142       C  0.40587702  0.83174800  0.80826078    -0.11900
C2143       C  0.38814499  0.85146425  0.81599121     0.02300
C2144       C  0.39522704  0.86968117  0.83591980    -0.00100
C2145       C  0.41983658  0.86701083  0.84817060    -0.11800
C2146       C  0.43736833  0.84707048  0.84075940     0.02100
H2147       H  0.40017195  0.81786459  0.79307054     0.15100
H2148       H  0.42574828  0.88098774  0.86319292     0.15100
C2149       C  0.46274504  0.84617589  0.85359592     0.36800
C2150       C  0.36241549  0.85174090  0.80391025     0.36700
N2151       N  0.48307279  0.84548810  0.86387272    -0.43600
N2152       N  0.34179468  0.85192234  0.79421823    -0.43600
C2153       C  0.59405362  0.84438834  0.88019908     0.00000
C2154       C  0.59238204  0.84623356  0.85286939    -0.11900
C2155       C  0.57449666  0.83064320  0.83880765     0.02300
C2156       C  0.55784069  0.81266224  0.85232623    -0.00100
C2157       C  0.55802535  0.81272040  0.87992825    -0.11800
C2158       C  0.57591663  0.82839561  0.89388072     0.02100
H2159       H  0.60599784  0.85886357  0.84237657     0.15100
H2160       H  0.54492802  0.79974222  0.89066905     0.15100
C2161       C  0.57567072  0.82745802  0.92226243     0.36800
C2162       C  0.57400781  0.83351329  0.81054602     0.36700
N2163       N  0.57550265  0.82682762  0.94500206    -0.43600
N2164       N  0.57369244  0.83587081  0.78791492    -0.43600
C2165       C  0.39847707  0.34182558  0.62383998     0.00000
C2166       C  0.42535922  0.34750439  0.62071571    -0.11900
C2167       C  0.44464463  0.33165466  0.63268414     0.02300
C2168       C  0.43693536  0.30985826  0.64812702    -0.00100
C2169       C  0.41003084  0.30495850  0.65195058    -0.11800
C2170       C  0.39091176  0.32064319  0.64014259     0.02100
H2171       H  0.43129341  0.36394033  0.60847446     0.15100
H2172       H  0.40384128  0.28863972  0.66426342     0.15100
C2173       C  0.36360048  0.31490840  0.64563995     0.36800
C2174       C  0.47199377  0.33873540  0.62971143     0.36700
N2175       N  0.34173611  0.31030827  0.65002817    -0.43600
N2176       N  0.49390909  0.34453250  0.62746326    -0.43600
C2177       C  0.39840378  0.40964428  0.56488517     0.00000
C2178       C  0.39550271  0.43692455  0.56695376    -0.11900
C2179       C  0.41320323  0.45407305  0.55453211     0.02300
C2180       C  0.43422977  0.44384791  0.53926845    -0.00100
C2181       C  0.43747669  0.41636966  0.53807512    -0.11800
C2182       C  0.41993467  0.39933096  0.55085000     0.02100
H2183       H  0.37922579  0.44484720  0.57821097     0.15100
H2184       H  0.45377439  0.40809677  0.52712970     0.15100
C2185       C  0.42503207  0.37139166  0.55012614     0.36800
C2186       C  0.40971857  0.48197361  0.55876287     0.36700
N2187       N  0.42955004  0.34906985  0.54983103    -0.43600
N2188       N  0.40695983  0.50430669  0.56233239    -0.43600
C2189       C  0.56545729  0.39734467  0.39911887     0.00000
C2190       C  0.57325404  0.42382328  0.39749447    -0.11900
C2191       C  0.56230282  0.44303671  0.41388935     0.02300
C2192       C  0.54282940  0.43599088  0.43249263    -0.00100
C2193       C  0.53540212  0.40935787  0.43449421    -0.11800
C2194       C  0.54643145  0.39012035  0.41800229     0.02100
H2195       H  0.58796583  0.42963979  0.38320218     0.15100
H2196       H  0.52082377  0.40353612  0.44891528     0.15100
C2197       C  0.53872088  0.36300507  0.42162932     0.36800
C2198       C  0.57238114  0.46958720  0.41187232     0.36700
N2199       N  0.53256799  0.34125853  0.42459703    -0.43600
N2200       N  0.58060181  0.49079786  0.41027598    -0.43600
C2201       C  0.40120830  0.64394191  0.33700354     0.00000
C2202       C  0.41676840  0.64009341  0.31442082    -0.11900
C2203       C  0.43377336  0.65981430  0.30511103     0.02300
C2204       C  0.43551491  0.68412347  0.31843837    -0.00100
C2205       C  0.42028588  0.68783923  0.34117411    -0.11800
C2206       C  0.40318570  0.66823018  0.35041462     0.02100
H2207       H  0.41597033  0.62137927  0.30418316     0.15100
H2208       H  0.42141381  0.70644491  0.35160454     0.15100
C2209       C  0.38724498  0.67428867  0.37303697     0.36800
C2210       C  0.45009818  0.65409364  0.28264095     0.36700
N2211       N  0.37477727  0.67967585  0.39125861    -0.43600
N2212       N  0.46326649  0.64943133  0.26470703    -0.43600
C2213       C  0.40405977  0.56980388  0.39125395     0.00000
C2214       C  0.39476368  0.54897487  0.40689375    -0.11900
C2215       C  0.41143729  0.53599902  0.42463979     0.02300
C2216       C  0.43813828  0.54349684  0.42655174    -0.00100
C2217       C  0.44752072  0.56393696  0.41048637    -0.11800
C2218       C  0.43071179  0.57731907  0.39321365     0.02100
H2219       H  0.37428678  0.54308505  0.40550329     0.15100
H2220       H  0.46795923  0.56994081  0.41191705     0.15100
C2221       C  0.44152063  0.59832975  0.37746389     0.36800
C2222       C  0.40084245  0.51467433  0.44015846     0.36700
N2223       N  0.45054517  0.61515472  0.36505404    -0.43600
N2224       N  0.39237871  0.49755984  0.45258112    -0.43600
C2225       C  0.44307705  0.61447586  0.59664750     0.00000
C2226       C  0.46642307  0.60174503  0.60453803    -0.11900
C2227       C  0.47941172  0.58388771  0.58788783     0.02300
C2228       C  0.46924778  0.57864708  0.56255124    -0.00100
C2229       C  0.44620017  0.59170009  0.55458311    -0.11800
C2230       C  0.43316087  0.60936592  0.57117108     0.02100
H2231       H  0.47409008  0.60505163  0.62417215     0.15100
H2232       H  0.43818901  0.58803079  0.53513432     0.15100
C2233       C  0.40999165  0.62223228  0.56098986     0.36800
C2234       C  0.50206908  0.57003063  0.59794426     0.36700
N2235       N  0.39137616  0.63212740  0.55239424    -0.43600
N2236       N  0.52012979  0.55880096  0.60607773    -0.43600
C2237       C  0.43613817  0.68560394  0.66958971     0.00000
C2238       C  0.46330605  0.68614037  0.67514499    -0.11900
C2239       C  0.47305118  0.69937003  0.69733458     0.02300
C2240       C  0.45565174  0.71282761  0.71419898    -0.00100
C2241       C  0.42902090  0.71414537  0.70776387    -0.11800
C2242       C  0.41905058  0.70047791  0.68613031     0.02100
H2243       H  0.47705810  0.67520770  0.66328231     0.15100
H2244       H  0.41564428  0.72462671  0.72064422     0.15100
C2245       C  0.39077010  0.70046936  0.68286500     0.36800
C2246       C  0.50101819  0.69882355  0.70245143     0.36700
N2247       N  0.36813197  0.70037005  0.68033863    -0.43600
N2248       N  0.52341936  0.69846643  0.70656495    -0.43600
C2249       C  0.60169212  0.36701285  0.66239983     0.00000
C2250       C  0.57974338  0.37342508  0.67781060    -0.11900
C2251       C  0.56327936  0.35369433  0.68783656     0.02300
C2252       C  0.56862159  0.32706709  0.68225052    -0.00100
C2253       C  0.59097547  0.32059129  0.66750090    -0.11800
C2254       C  0.60790361  0.34029418  0.65818726     0.02100
H2255       H  0.57540777  0.39392928  0.68187262     0.15100
H2256       H  0.59541475  0.30006852  0.66363573     0.15100
C2257       C  0.63243918  0.33251495  0.64630712     0.36800
C2258       C  0.54054450  0.36120811  0.70304050     0.36700
N2259       N  0.65232390  0.32592123  0.63746114    -0.43600
N2260       N  0.52231883  0.36712297  0.71527524    -0.43600
C2261       C  0.56831814  0.46769850  0.56773702     0.00000
C2262       C  0.55818687  0.44624128  0.58200520    -0.11900
C2263       C  0.57346948  0.43299130  0.60075806     0.02300
C2264       C  0.59961185  0.44107839  0.60554829    -0.00100
C2265       C  0.60977592  0.46255540  0.59129015    -0.11800
C2266       C  0.59447285  0.47579901  0.57249572     0.02100
H2267       H  0.53807160  0.43988125  0.57862036     0.15100
H2268       H  0.63002706  0.46861102  0.59437781     0.15100
C2269       C  0.60659175  0.49653389  0.55731751     0.36800
C2270       C  0.56143024  0.41173660  0.61525052     0.36700
N2271       N  0.61639626  0.51302106  0.54503600    -0.43600
N2272       N  0.55137364  0.39474390  0.62659864    -0.43600
C2273       C  0.67129764  0.43606697  0.67704885     0.00000
C2274       C  0.67471139  0.46364872  0.67760485    -0.11900
C2275       C  0.69550631  0.47525888  0.69146245     0.02300
C2276       C  0.71330669  0.45940142  0.70555988    -0.00100
C2277       C  0.70914114  0.43223619  0.70672096    -0.11800
C2278       C  0.68874561  0.42042915  0.69245395     0.02100
H2279       H  0.66221176  0.47659423  0.66643901     0.15100
H2280       H  0.72274332  0.42000643  0.71773368     0.15100
C2281       C  0.68724490  0.39200596  0.69303857     0.36800
C2282       C  0.69812999  0.50359758  0.69091626     0.36700
N2283       N  0.68606658  0.36924975  0.69359176    -0.43600
N2284       N  0.70015941  0.52629533  0.69049226    -0.43600
C2285       C  0.60006954  0.67380732  0.37607151     0.00000
C2286       C  0.58324635  0.68990228  0.39091539    -0.11900
C2287       C  0.56462115  0.70611816  0.37873768     0.02300
C2288       C  0.56234768  0.70606845  0.35105346    -0.00100
C2289       C  0.57834508  0.68877480  0.33641231    -0.11800
C2290       C  0.59721861  0.67291469  0.34862933     0.02100
H2291       H  0.58565150  0.69078925  0.41209861     0.15100
H2292       H  0.57677993  0.68824105  0.31515291     0.15100
C2293       C  0.61481447  0.65765044  0.33242816     0.36800
C2294       C  0.54970852  0.72389424  0.39506860     0.36700
N2295       N  0.62897299  0.64561718  0.31932549    -0.43600
N2296       N  0.53792823  0.73821478  0.40823755    -0.43600
C2297       C  0.57340050  0.57499461  0.45938472     0.00000
C2298       C  0.59996762  0.57454074  0.46689883    -0.11900
C2299       C  0.61860367  0.59065186  0.45430897     0.02300
C2300       C  0.61066926  0.60810610  0.43409032    -0.00100
C2301       C  0.58401951  0.60872579  0.42682789    -0.11800
C2302       C  0.56546926  0.59244139  0.43919771     0.02100
H2303       H  0.60634883  0.56086873  0.48198904     0.15100
H2304       H  0.57752709  0.62235779  0.41174677     0.15100
C2305       C  0.53821054  0.59468618  0.43142049     0.36800
C2306       C  0.64591483  0.58788672  0.46160990     0.36700
N2307       N  0.51636934  0.59661869  0.42525132    -0.43600
N2308       N  0.66783015  0.58568915  0.46740646    -0.43600
C2309       C  0.21249546  0.46791212  0.79290713     0.00000
C2310       C  0.20528865  0.47708419  0.81783789    -0.11900
C2311       C  0.18337067  0.46698982  0.83099167     0.02300
C2312       C  0.16774162  0.44678404  0.81936408    -0.00100
C2313       C  0.17384652  0.43928043  0.79332627    -0.11800
C2314       C  0.19585513  0.44964144  0.78015751     0.02100
H2315       H  0.21749073  0.49162675  0.82768189     0.15100
H2316       H  0.16248411  0.42443708  0.78324963     0.15100
C2317       C  0.20060472  0.44147610  0.75340309     0.36800
C2318       C  0.17877207  0.47669610  0.85728249     0.36700
N2319       N  0.20426175  0.43507118  0.73188820    -0.43600
N2320       N  0.17534802  0.48479092  0.87825772    -0.43600
C2321       C  0.31487789  0.44319448  0.67343233     0.00000
C2322       C  0.33383021  0.42415387  0.68005508    -0.11900
C2323       C  0.34567485  0.40836781  0.66071767     0.02300
C2324       C  0.33812640  0.41097198  0.63411862    -0.00100
C2325       C  0.31942370  0.43022456  0.62745545    -0.11800
C2326       C  0.30803759  0.44641332  0.64666048     0.02100
H2327       H  0.33974686  0.42186408  0.70042564     0.15100
H2328       H  0.31348043  0.43245422  0.60708298     0.15100
C2329       C  0.28872213  0.46552609  0.63837307     0.36800
C2330       C  0.36492279  0.38921908  0.66894931     0.36700
N2331       N  0.27326882  0.48084482  0.63167546    -0.43600
N2332       N  0.38044583  0.37412356  0.67596103    -0.43600
C2333       C  0.35505548  0.56833737  0.69412690     0.00000
C2334       C  0.37107305  0.56057700  0.67310343    -0.11900
C2335       C  0.38383621  0.57944352  0.65744791     0.02300
C2336       C  0.38042756  0.60649059  0.66287661    -0.00100
C2337       C  0.36380958  0.61401346  0.68362640    -0.11800
C2338       C  0.35114554  0.59526385  0.69913778     0.02100
H2339       H  0.37360387  0.53978664  0.66895631     0.15100
H2340       H  0.36095350  0.63474276  0.68791417     0.15100
C2341       C  0.33435885  0.60409424  0.72025989     0.36800
C2342       C  0.40109118  0.57041768  0.63687302     0.36700
N2343       N  0.32093162  0.61114949  0.73719185    -0.43600
N2344       N  0.41482341  0.56273650  0.62047204    -0.43600
C2345       C  0.33685599  0.38872947  0.09939531     0.00000
C2346       C  0.34247939  0.36256126  0.09285487    -0.11900
C2347       C  0.32783327  0.34933483  0.07355439     0.02300
C2348       C  0.30737390  0.36254833  0.06001231    -0.00100
C2349       C  0.30325569  0.38932237  0.06499464    -0.11800
C2350       C  0.31756929  0.40239667  0.08459945     0.02100
H2351       H  0.35724494  0.35200289  0.10357901     0.15100
H2352       H  0.28782302  0.39972133  0.05456640     0.15100
C2353       C  0.31128316  0.42964412  0.08953727     0.36800
C2354       C  0.33413265  0.32207609  0.06837700     0.36700
N2355       N  0.30564907  0.45133377  0.09351936    -0.43600
N2356       N  0.33920670  0.30024192  0.06433214    -0.43600
C2357       C  0.40270254  0.44579937  0.11088770     0.00000
C2358       C  0.42818696  0.43591008  0.10704131    -0.11900
C2359       C  0.44547280  0.44786795  0.08911084     0.02300
C2360       C  0.43694825  0.46955095  0.07391732    -0.00100
C2361       C  0.41147740  0.47930787  0.07763511    -0.11800
C2362       C  0.39456949  0.46805197  0.09621754     0.02100
H2363       H  0.43467533  0.41893188  0.11823205     0.15100
H2364       H  0.40487152  0.49606413  0.06617212     0.15100
C2365       C  0.36893938  0.47975096  0.09950763     0.36800
C2366       C  0.47153151  0.43702229  0.08602773     0.36700
N2367       N  0.34867186  0.48966561  0.10236181    -0.43600
N2368       N  0.49246336  0.42844591  0.08356361    -0.43600
C2369       C  0.59798231  0.64017903  0.83386523     0.00000
C2370       C  0.57853618  0.63379734  0.81524158    -0.11900
C2371       C  0.56172739  0.65309992  0.80491515     0.02300
C2372       C  0.56461952  0.67969999  0.81268729    -0.00100
C2373       C  0.58419003  0.68607888  0.83123001    -0.11800
C2374       C  0.60053294  0.66658822  0.84208503     0.02100
H2375       H  0.57647480  0.61355261  0.80873246     0.15100
H2376       H  0.58636346  0.70631432  0.83771285     0.15100
C2377       C  0.62010459  0.67437704  0.86114563     0.36800
C2378       C  0.54214617  0.64509240  0.78589105     0.36700
N2379       N  0.63561518  0.68090766  0.87651029    -0.43600
N2380       N  0.52642828  0.63859550  0.77071099    -0.43600
C2381       C  0.55886928  0.54602874  0.92586726     0.00000
C2382       C  0.58317380  0.53384980  0.92120233    -0.11900
C2383       C  0.60135152  0.54465904  0.90358556     0.02300
C2384       C  0.59521861  0.56804371  0.88974688    -0.00100
C2385       C  0.57069596  0.57994206  0.89390160    -0.11800
C2386       C  0.55250734  0.56915090  0.91163694     0.02100
H2387       H  0.58847183  0.51630399  0.93214419     0.15100
H2388       H  0.56564118  0.59764717  0.88309905     0.15100
C2389       C  0.52722041  0.58181303  0.91419846     0.36800
C2390       C  0.62676483  0.53217126  0.90143471     0.36700
N2391       N  0.50693502  0.59194386  0.91611496    -0.43600
N2392       N  0.64711702  0.52215246  0.89967519    -0.43600
C2393       C  0.66636831  0.56958138  0.81772514     0.00000
C2394       C  0.66905275  0.54195708  0.81749704    -0.11900
C2395       C  0.69015066  0.52969061  0.80474850     0.02300
C2396       C  0.70921995  0.54504869  0.79142374    -0.00100
C2397       C  0.70542466  0.57234874  0.78985101    -0.11800
C2398       C  0.68463123  0.58464505  0.80281919     0.02100
H2399       H  0.65580452  0.52951675  0.82841620     0.15100
H2400       H  0.71954048  0.58453012  0.77946299     0.15100
C2401       C  0.68395979  0.61310104  0.80203165     0.36800
C2402       C  0.69186328  0.50133897  0.80651270     0.36700
N2403       N  0.68357822  0.63587923  0.80142896    -0.43600
N2404       N  0.69316610  0.47864185  0.80809928    -0.43600
C2405       C  0.43708102  0.69901903  0.85516955     0.00000
C2406       C  0.43733862  0.69936197  0.88278693    -0.11900
C2407       C  0.41824619  0.68568801  0.89723288     0.02300
C2408       C  0.39858724  0.67109754  0.88402265    -0.00100
C2409       C  0.39833334  0.67057827  0.85659739    -0.11800
C2410       C  0.41712206  0.68441167  0.84207173     0.02100
H2411       H  0.45238087  0.71045221  0.89314929     0.15100
H2412       H  0.38251019  0.66053129  0.84642829     0.15100
C2413       C  0.41413691  0.68452111  0.81381145     0.36800
C2414       C  0.41909203  0.68718039  0.92556154     0.36700
N2415       N  0.41157350  0.68462871  0.79119752    -0.43600
N2416       N  0.41992199  0.68860536  0.94824793    -0.43600
C2417       C  0.33285911  0.60900999  0.86700701     0.00000
C2418       C  0.34869009  0.60735096  0.84450690    -0.11900
C2419       C  0.34158116  0.59145136  0.82306713     0.02300
C2420       C  0.31819910  0.57625014  0.82386210    -0.00100
C2421       C  0.30241368  0.57768004  0.84645540    -0.11800
C2422       C  0.30962814  0.59351739  0.86798405     0.02100
H2423       H  0.36663910  0.61875092  0.84342736     0.15100
H2424       H  0.28479939  0.56565551  0.84769845     0.15100
C2425       C  0.29370726  0.59201971  0.89141676     0.36800
C2426       C  0.35831783  0.59187361  0.80015453     0.36700
N2427       N  0.28098875  0.59077258  0.91022357    -0.43600
N2428       N  0.37172432  0.59230030  0.78179655    -0.43600
C2429       C  0.38658560  0.60541994  0.94191879     0.00000
C2430       C  0.40427818  0.61598756  0.96035229    -0.11900
C2431       C  0.42338235  0.60014749  0.97236007     0.02300
C2432       C  0.42448275  0.57298186  0.96641749    -0.00100
C2433       C  0.40623964  0.56238146  0.94846680    -0.11800
C2434       C  0.38767830  0.57840808  0.93592847     0.02100
H2435       H  0.40354814  0.63682891  0.96489985     0.15100
H2436       H  0.40699809  0.54160586  0.94358186     0.15100
C2437       C  0.36991494  0.56665933  0.91710039     0.36800
C2438       C  0.44131653  0.61223360  0.99085262     0.36700
N2439       N  0.35577840  0.55711796  0.90198179    -0.43600
N2440       N  0.45569107  0.62201588  0.00560278    -0.43600
C2441       C  0.31895591  0.67884941  0.93947465     0.00000
C2442       C  0.29538741  0.68799017  0.92791325    -0.11900
C2443       C  0.28200773  0.70993605  0.93775991     0.02300
C2444       C  0.29212669  0.72368989  0.95968734    -0.00100
C2445       C  0.31491739  0.71415393  0.97194513    -0.11800
C2446       C  0.32845657  0.69241599  0.96207340     0.02100
H2447       H  0.28772203  0.67927756  0.91015673     0.15100
H2448       H  0.32294805  0.72438997  0.98888874     0.15100
C2449       C  0.35275001  0.68562068  0.97518896     0.36800
C2450       C  0.25807086  0.71787710  0.92462232     0.36700
N2451       N  0.37197776  0.68031395  0.98618805    -0.43600
N2452       N  0.23891843  0.72417507  0.91402459    -0.43600
C2453       C  0.32484595  0.32604782  0.93267680     0.00000
C2454       C  0.34251984  0.34575958  0.94081011    -0.11900
C2455       C  0.36333602  0.35404812  0.92475837     0.02300
C2456       C  0.36650356  0.34315219  0.89939688    -0.00100
C2457       C  0.34896758  0.32315082  0.89132867    -0.11800
C2458       C  0.32843880  0.31444123  0.90771957     0.02100
H2459       H  0.34030878  0.35450348  0.96014016     0.15100
H2460       H  0.35098222  0.31459087  0.87191095     0.15100
C2461       C  0.31072818  0.29442650  0.89798243     0.36800
C2462       C  0.38181568  0.37272619  0.93563171     0.36700
N2463       N  0.29656114  0.27836825  0.89013045    -0.43600
N2464       N  0.39644928  0.38759520  0.94483737    -0.43600
C2465       C  0.37962224  0.40789819  0.83366380     0.00000
C2466       C  0.39384388  0.42347639  0.81575884    -0.11900
C2467       C  0.38136313  0.44276916  0.80060960     0.02300
C2468       C  0.35399243  0.44663873  0.80319985    -0.00100
C2469       C  0.34007697  0.43182110  0.82203631    -0.11800
C2470       C  0.35263676  0.41263188  0.83725640     0.02100
H2471       H  0.41474600  0.42007249  0.81315771     0.15100
H2472       H  0.31909820  0.43481025  0.82447769     0.15100
C2473       C  0.33711128  0.39713554  0.85527940     0.36800
C2474       C  0.39686936  0.45699323  0.78152911     0.36700
N2475       N  0.32456175  0.38478718  0.86970526    -0.43600
N2476       N  0.40938873  0.46830270  0.76624810    -0.43600
C2477       C  0.43808189  0.40228873  0.89995244     0.00000
C2478       C  0.46005396  0.39456335  0.91508853    -0.11900
C2479       C  0.47236150  0.41207014  0.93269771     0.02300
C2480       C  0.46243580  0.43778692  0.93583194    -0.00100
C2481       C  0.44074896  0.44556942  0.92074837    -0.11800
C2482       C  0.42883385  0.42849554  0.90273328     0.02100
H2483       H  0.46740262  0.37460156  0.91357694     0.15100
H2484       H  0.43329082  0.46548895  0.92271892     0.15100
C2485       C  0.40789155  0.43943078  0.88703287     0.36800
C2486       C  0.49437608  0.40284182  0.94809556     0.36700
N2487       N  0.39113469  0.44929699  0.87519614    -0.43600
N2488       N  0.51202893  0.39548926  0.96046698    -0.43600
C2489       C  0.43581702  0.32837929  0.82929168     0.00000
C2490       C  0.46336812  0.32566078  0.82798681    -0.11900
C2491       C  0.47538825  0.31165005  0.80746382     0.02300
C2492       C  0.45982319  0.29983208  0.78752115    -0.00100
C2493       C  0.43239425  0.30057854  0.79007905    -0.11800
C2494       C  0.42037786  0.31440448  0.81051016     0.02100
H2495       H  0.47596280  0.33486229  0.84240305     0.15100
H2496       H  0.42004766  0.29119526  0.77538125     0.15100
C2497       C  0.39193064  0.31524290  0.81049585     0.36800
C2498       C  0.50375497  0.30979234  0.80759879     0.36700
N2499       N  0.36917634  0.31607974  0.81030894    -0.43600
N2500       N  0.52647817  0.30832072  0.80783635    -0.43600
C2501       C  0.56008414  0.61981282  0.09667539     0.00000
C2502       C  0.56536612  0.62083303  0.06969491    -0.11900
C2503       C  0.55307847  0.60326953  0.05224278     0.02300
C2504       C  0.53571924  0.58370782  0.06201449    -0.00100
C2505       C  0.53045786  0.58295897  0.08910821    -0.11800
C2506       C  0.54219216  0.60092936  0.10634975     0.02100
H2507       H  0.57905690  0.63545155  0.06226708     0.15100
H2508       H  0.51716525  0.56818121  0.09691663     0.15100
C2509       C  0.53640848  0.59890659  0.13406768     0.36800
C2510       C  0.55934359  0.60534995  0.02464029     0.36700
N2511       N  0.53180200  0.59737608  0.15628375    -0.43600
N2512       N  0.56430868  0.60717960  0.00251836    -0.43600
C2513       C  0.56474941  0.69081386  0.16823970     0.00000
C2514       C  0.53719426  0.69331259  0.16986954    -0.11900
C2515       C  0.52531843  0.70671989  0.19072030     0.02300
C2516       C  0.54103713  0.71827158  0.21063049    -0.00100
C2517       C  0.56843992  0.71801668  0.20773828    -0.11800
C2518       C  0.58033701  0.70460897  0.18698487     0.02100
H2519       H  0.52436298  0.68419598  0.15565664     0.15100
H2520       H  0.58083671  0.72734682  0.22242736     0.15100
C2521       C  0.60877572  0.70431782  0.18638453     0.36800
C2522       C  0.49690259  0.70797560  0.19107140     0.36700
N2523       N  0.63154019  0.70419864  0.18588421    -0.43600
N2524       N  0.47415014  0.70889611  0.19129448    -0.43600
C2525       C  0.60988100  0.41107591  0.05746402     0.00000
C2526       C  0.60307470  0.43383640  0.07163889    -0.11900
C2527       C  0.58509755  0.45223670  0.06171190     0.02300
C2528       C  0.57348964  0.44836244  0.03666876    -0.00100
C2529       C  0.58108345  0.42630129  0.02196746    -0.11800
C2530       C  0.59876914  0.40768128  0.03203250     0.02100
H2531       H  0.61165636  0.43736593  0.09080422     0.15100
H2532       H  0.57234294  0.42295292  0.00277519     0.15100
C2533       C  0.60373065  0.38493332  0.01586165     0.36800
C2534       C  0.57916107  0.47490609  0.07780289     0.36700
N2535       N  0.60739049  0.36721297  0.00206614    -0.43600
N2536       N  0.57437395  0.49299009  0.09077904    -0.43600
C2537       C  0.70505627  0.29339155  0.03708210     0.00000
C2538       C  0.67848021  0.29673988  0.03081358    -0.11900
C2539       C  0.66380202  0.31719358  0.04176423     0.02300
C2540       C  0.67564095  0.33510726  0.05982938    -0.00100
C2541       C  0.70301369  0.33291332  0.06414267    -0.11800
C2542       C  0.71762956  0.31231450  0.05302943     0.02100
H2543       H  0.66876891  0.28258449  0.01806683     0.15100
H2544       H  0.71343070  0.34689171  0.07625814     0.15100
C2545       C  0.74567535  0.31157358  0.05754635     0.36800
C2546       C  0.63608986  0.31780726  0.03538632     0.36700
N2547       N  0.76818216  0.31117040  0.06099854    -0.43600
N2548       N  0.61384373  0.31752700  0.03051288    -0.43600
C2549       C  0.06351190  0.61485879  0.40295492     0.00000
C2550       C  0.04981600  0.62485978  0.42475129    -0.11900
C2551       C  0.03730277  0.60794972  0.44272544     0.02300
C2552       C  0.03759174  0.58038908  0.43845430    -0.00100
C2553       C  0.05135734  0.57064169  0.41662968    -0.11800
C2554       C  0.06441621  0.58737012  0.39923021     0.02100
H2555       H  0.04919931  0.64597323  0.42790840     0.15100
H2556       H  0.05229517  0.54957953  0.41318723     0.15100
C2557       C  0.07797583  0.57520690  0.37759708     0.36800
C2558       C  0.02431871  0.61954575  0.46509732     0.36700
N2559       N  0.08853698  0.56389223  0.36097607    -0.43600
N2560       N  0.01415326  0.62899478  0.48310441    -0.43600
C2561       C  0.06156910  0.68682560  0.33321462     0.00000
C2562       C  0.07227164  0.71119253  0.32507417    -0.11900
C2563       C  0.06181183  0.72517537  0.30364721     0.02300
C2564       C  0.04007836  0.71494532  0.28957473    -0.00100
C2565       C  0.02849860  0.69151178  0.29841155    -0.11800
C2566       C  0.03902981  0.67733217  0.31946926     0.02100
H2567       H  0.08988884  0.71891264  0.33414591     0.15100
H2568       H  0.01174603  0.68336141  0.28792674     0.15100
C2569       C  0.02693329  0.65219770  0.32510385     0.36800
C2570       C  0.07408230  0.74981657  0.29646613     0.36700
N2571       N  0.01689142  0.63221373  0.32953322    -0.43600
N2572       N  0.08396238  0.76955617  0.29077379    -0.43600
C2573       C  0.87593629  0.40567753  0.66520156     0.00000
C2574       C  0.88903209  0.42955308  0.66996508    -0.11900
C2575       C  0.87688004  0.44963758  0.68435079     0.02300
C2576       C  0.85135458  0.44564636  0.69435793    -0.00100
C2577       C  0.83871219  0.42136216  0.69033009    -0.11800
C2578       C  0.85108335  0.40118403  0.67644573     0.02100
H2579       H  0.90875838  0.43247208  0.66238915     0.15100
H2580       H  0.81933073  0.41796636  0.69858077     0.15100
C2581       C  0.83841018  0.37574583  0.67476909     0.36800
C2582       C  0.89052467  0.47435482  0.68780082     0.36700
N2583       N  0.82841124  0.35529379  0.67344982    -0.43600
N2584       N  0.90140699  0.49420905  0.69053063    -0.43600
C2585       C  0.93243548  0.39989128  0.59564322     0.00000
C2586       C  0.95504559  0.39211096  0.58149482    -0.11900
C2587       C  0.96880227  0.40979027  0.56527210     0.02300
C2588       C  0.96002570  0.43593631  0.56276757    -0.00100
C2589       C  0.93731625  0.44363680  0.57622819    -0.11800
C2590       C  0.92349683  0.42621288  0.59238814     0.02100
H2591       H  0.96189881  0.37196127  0.58269821     0.15100
H2592       H  0.93025867  0.46369825  0.57413092     0.15100
C2593       C  0.90040336  0.43682183  0.60488372     0.36800
C2594       C  0.99095042  0.40026527  0.55035330     0.36700
N2595       N  0.88168130  0.44620902  0.61375185    -0.43600
N2596       N  0.00860506  0.39262154  0.53823985    -0.43600
C2597       C  0.93485405  0.32876831  0.66682855     0.00000
C2598       C  0.92465021  0.30420497  0.67500197    -0.11900
C2599       C  0.93566687  0.29025518  0.69601234     0.02300
C2600       C  0.95765786  0.30058972  0.70950432    -0.00100
C2601       C  0.96859103  0.32442658  0.70092539    -0.11800
C2602       C  0.95721995  0.33878105  0.68044699     0.02100
H2603       H  0.90690712  0.29623440  0.66648342     0.15100
H2604       H  0.98531830  0.33277397  0.71129906     0.15100
C2605       C  0.96794103  0.36469437  0.67554266     0.36800
C2606       C  0.92344284  0.26567849  0.70356624     0.36700
N2607       N  0.97665679  0.38542712  0.67178880    -0.43600
N2608       N  0.91351600  0.24608608  0.70967024    -0.43600
C2609       C  0.93593855  0.46901496  0.42778430     0.00000
C2610       C  0.91242890  0.48177818  0.42126530    -0.11900
C2611       C  0.89479112  0.47079906  0.40308006     0.02300
C2612       C  0.90091198  0.44676429  0.39028800    -0.00100
C2613       C  0.92441764  0.43387761  0.39712814    -0.11800
C2614       C  0.94157874  0.44447802  0.41606286     0.02100
H2615       H  0.90756175  0.50020631  0.43087188     0.15100
H2616       H  0.92912146  0.41509857  0.38816830     0.15100
C2617       C  0.96318839  0.42848181  0.42517484     0.36800
C2618       C  0.86982229  0.48381673  0.39951271     0.36700
N2619       N  0.97988359  0.41509856  0.43294185    -0.43600
N2620       N  0.84980454  0.49428885  0.39676277    -0.43600
C2621       C  0.83084264  0.60674472  0.63467990     0.00000
C2622       C  0.83855109  0.61044073  0.66088680    -0.11900
C2623       C  0.82838266  0.59451575  0.68105411     0.02300
C2624       C  0.81038875  0.57401168  0.67502388    -0.00100
C2625       C  0.80297345  0.57018895  0.64867632    -0.11800
C2626       C  0.81267986  0.58652887  0.62867439     0.02100
H2627       H  0.85219808  0.62610500  0.66570636     0.15100
H2628       H  0.78937541  0.55446861  0.64369123     0.15100
C2629       C  0.80424216  0.58172218  0.60197731     0.36800
C2630       C  0.83747336  0.59915852  0.70758731     0.36700
N2631       N  0.79757203  0.57784834  0.58055818    -0.43600
N2632       N  0.84476912  0.60293508  0.72882956    -0.43600
C2633       C  0.88748930  0.60374421  0.56170816     0.00000
C2634       C  0.90378800  0.61417190  0.54196620    -0.11900
C2635       C  0.92322103  0.59874907  0.52994225     0.02300
C2636       C  0.92610079  0.57205987  0.53709622    -0.00100
C2637       C  0.90936024  0.56148866  0.55636035    -0.11800
C2638       C  0.89050496  0.57710702  0.56895563     0.02100
H2639       H  0.90173362  0.63465397  0.53633581     0.15100
H2640       H  0.91146450  0.54101975  0.56208998     0.15100
C2641       C  0.87451455  0.56508561  0.58906061     0.36800
C2642       C  0.93950893  0.61066258  0.50999682     0.36700
N2643       N  0.86213017  0.55493672  0.60521946    -0.43600
N2644       N  0.95249978  0.62033965  0.49402171    -0.43600
C2645       C  0.11043932  0.41229297  0.44004714     0.00000
C2646       C  0.08565357  0.41592014  0.42844958    -0.11900
C2647       C  0.06722807  0.43315261  0.43910945     0.02300
C2648       C  0.07220150  0.44570744  0.46344228    -0.00100
C2649       C  0.09670769  0.44179524  0.47561121    -0.11800
C2650       C  0.11613623  0.42607052  0.46372079     0.02100
H2651       H  0.08038073  0.40538260  0.41069977     0.15100
H2652       H  0.10113613  0.45203111  0.49381064     0.15100
C2653       C  0.14201740  0.42597523  0.47545939     0.36800
C2654       C  0.04369089  0.43798063  0.42394586     0.36700
N2655       N  0.16275937  0.42606919  0.48490250    -0.43600
N2656       N  0.02537787  0.44238651  0.41115938    -0.43600
C2657       C  0.09408389  0.56977023  0.61242090     0.00000
C2658       C  0.10072676  0.54490908  0.60207997    -0.11900
C2659       C  0.08441978  0.53191737  0.58388381     0.02300
C2660       C  0.06076553  0.54384137  0.57538736    -0.00100
C2661       C  0.05381625  0.56831484  0.58621865    -0.11800
C2662       C  0.06997592  0.58121703  0.60450751     0.02100
H2663       H  0.11926736  0.53588380  0.60748398     0.15100
H2664       H  0.03553365  0.57759175  0.58028262     0.15100
C2665       C  0.06070020  0.60597151  0.61477320     0.36800
C2666       C  0.09324545  0.50705373  0.57337315     0.36700
N2667       N  0.05257754  0.62588085  0.62222025    -0.43600
N2668       N  0.10040702  0.48712952  0.56500656    -0.43600
C2669       C  0.17038762  0.57274571  0.67850328     0.00000
C2670       C  0.17938146  0.58460115  0.70203869    -0.11900
C2671       C  0.20106515  0.57484539  0.71592176     0.02300
C2672       C  0.21473433  0.55268030  0.70640683    -0.00100
C2673       C  0.20550263  0.54025063  0.68352597    -0.11800
C2674       C  0.18395231  0.55005181  0.66950176     0.02100
H2675       H  0.17099420  0.60270014  0.70917483     0.15100
H2676       H  0.21561869  0.52301978  0.67605189     0.15100
C2677       C  0.17734697  0.53694658  0.64516983     0.36800
C2678       C  0.20979511  0.58928097  0.73883324     0.36700
N2679       N  0.17226148  0.52607945  0.62581692    -0.43600
N2680       N  0.21674658  0.60093357  0.75713577    -0.43600
C2681       C  0.95537415  0.71073018  0.78713961     0.00000
C2682       C  0.92957401  0.71568000  0.79500953    -0.11900
C2683       C  0.91858701  0.70256760  0.81645846     0.02300
C2684       C  0.93390781  0.68451799  0.83155778    -0.00100
C2685       C  0.96044751  0.68094198  0.82436757    -0.11800
C2686       C  0.97113716  0.69368708  0.80238413     0.02100
H2687       H  0.91738280  0.72882703  0.78340621     0.15100
H2688       H  0.97275107  0.66702767  0.83464911     0.15100
C2689       C  0.99834116  0.68877627  0.79584400     0.36800
C2690       C  0.89088131  0.70691538  0.82102356     0.36700
N2691       N  0.02012911  0.68483721  0.79060137    -0.43600
N2692       N  0.86872239  0.71070464  0.82455059    -0.43600
C2693       C  0.06314229  0.82907376  0.82897803     0.00000
C2694       C  0.03584396  0.82397666  0.82971080    -0.11900
C2695       C  0.02350481  0.80882417  0.81013006     0.02300
C2696       C  0.03835045  0.79893934  0.78886321    -0.00100
C2697       C  0.06573359  0.80172782  0.78953747    -0.11800
C2698       C  0.07817676  0.81593471  0.80945072     0.02100
H2699       H  0.02381364  0.83139477  0.84549671     0.15100
H2700       H  0.07763779  0.79328248  0.77400517     0.15100
C2701       C  0.10655087  0.81679300  0.80875091     0.36800
C2702       C  0.99587924  0.80276777  0.81301581     0.36700
N2703       N  0.12927484  0.81678990  0.80772615    -0.43600
N2704       N  0.97384244  0.79758224  0.81553678    -0.43600
C2705       C  0.06647180  0.68058802  0.68933886     0.00000
C2706       C  0.09147207  0.68845718  0.68029132    -0.11900
C2707       C  0.10891414  0.67037850  0.66891758     0.02300
C2708       C  0.10132451  0.64388517  0.66588178    -0.00100
C2709       C  0.07699220  0.63565023  0.67578651    -0.11800
C2710       C  0.05953482  0.65357040  0.68730732     0.02100
H2711       H  0.09747511  0.70884491  0.68197234     0.15100
H2712       H  0.07172291  0.61495691  0.67472421     0.15100
C2713       C  0.03506383  0.64327985  0.69742475     0.36800
C2714       C  0.13484386  0.67927975  0.66149423     0.36700
N2715       N  0.01552088  0.63486345  0.70553545    -0.43600
N2716       N  0.15569574  0.68653858  0.65591095    -0.43600
C2717       C  0.90059311  0.66725181  0.61980233     0.00000
C2718       C  0.90212927  0.66554395  0.64709790    -0.11900
C2719       C  0.92070417  0.68024325  0.66115599     0.02300
C2720       C  0.93860596  0.69708558  0.64767673    -0.00100
C2721       C  0.93783351  0.69765082  0.62007778    -0.11800
C2722       C  0.91916456  0.68278649  0.60611806     0.02100
H2723       H  0.88780207  0.65380896  0.65762591     0.15100
H2724       H  0.95175609  0.70976348  0.60936794     0.15100
C2725       C  0.91946927  0.68365031  0.57773875     0.36800
C2726       C  0.91962338  0.67855552  0.68949425     0.36700
N2727       N  0.91982086  0.68425117  0.55500050    -0.43600
N2728       N  0.91864312  0.67708445  0.71217701    -0.43600
C2729       C  0.70674276  0.21527684  0.54015569     0.00000
C2730       C  0.70814829  0.21090615  0.56724405    -0.11900
C2731       C  0.69432097  0.19014592  0.57897587     0.02300
C2732       C  0.67895118  0.17253642  0.56340234    -0.00100
C2733       C  0.67963555  0.17585265  0.53583855    -0.11800
C2734       C  0.69308237  0.19704956  0.52428247     0.02100
H2735       H  0.71894380  0.22467901  0.57952532     0.15100
H2736       H  0.66884952  0.16293126  0.52291833     0.15100
C2737       C  0.69262934  0.19963390  0.49600151     0.36800
C2738       C  0.69498012  0.18865673  0.60734250     0.36700
N2739       N  0.69232529  0.20161965  0.47333869    -0.43600
N2740       N  0.69550675  0.18759558  0.63006410    -0.43600
C2741       C  0.67662477  0.31555388  0.42682952     0.00000
C2742       C  0.65842752  0.33367217  0.43706763    -0.11900
C2743       C  0.63929960  0.34550107  0.42109325     0.02300
C2744       C  0.63798038  0.33929765  0.39406725    -0.00100
C2745       C  0.65617892  0.32112634  0.38378974    -0.11800
C2746       C  0.67532244  0.30926573  0.39982593     0.02100
H2747       H  0.65921300  0.33878318  0.45776408     0.15100
H2748       H  0.65525370  0.31592992  0.36312686     0.15100
C2749       C  0.69240059  0.28973429  0.38834915     0.36800
C2750       C  0.62061445  0.36288086  0.43344894     0.36700
N2751       N  0.70591170  0.27392495  0.37913464    -0.43600
N2752       N  0.60586469  0.37673594  0.44381438    -0.43600
C2753       C  0.81985329  0.32199276  0.56580475     0.00000
C2754       C  0.81643833  0.34567957  0.57960891    -0.11900
C2755       C  0.83591807  0.35560870  0.59646709     0.02300
C2756       C  0.85985963  0.34173135  0.59992269    -0.00100
C2757       C  0.86319824  0.31795109  0.58596425    -0.11800
C2758       C  0.84358149  0.30800757  0.56920764     0.02100
H2759       H  0.79829280  0.35664787  0.57717784     0.15100
H2760       H  0.88155884  0.30725023  0.58756252     0.15100
C2761       C  0.84900514  0.28417152  0.55473579     0.36800
C2762       C  0.83012161  0.37998586  0.60975597     0.36700
N2763       N  0.85342922  0.26510318  0.54310910    -0.43600
N2764       N  0.82486988  0.39981036  0.61964245    -0.43600
C2765       C  0.68849723  0.35604606  0.55271416     0.00000
C2766       C  0.69722640  0.38112433  0.56048873    -0.11900
C2767       C  0.68466055  0.39499304  0.58058926     0.02300
C2768       C  0.66323270  0.38346871  0.59417540    -0.00100
C2769       C  0.65284502  0.35970432  0.58472218    -0.11800
C2770       C  0.66513424  0.34592923  0.56426998     0.02100
H2771       H  0.71426656  0.38992225  0.55114286     0.15100
H2772       H  0.63547080  0.35136810  0.59379498     0.15100
C2773       C  0.65315485  0.32151124  0.55586518     0.36800
C2774       C  0.69367002  0.42144137  0.58604642     0.36700
N2775       N  0.64340037  0.30201638  0.54915305    -0.43600
N2776       N  0.70086840  0.44264251  0.59036634    -0.43600
C2777       C  0.80537789  0.35906123  0.43853330     0.00000
C2778       C  0.80029542  0.38602722  0.43553582    -0.11900
C2779       C  0.81465342  0.40122354  0.41759306     0.02300
C2780       C  0.83434344  0.38934041  0.40196141    -0.00100
C2781       C  0.84108390  0.36304538  0.40670867    -0.11800
C2782       C  0.82694433  0.34790436  0.42490179     0.02100
H2783       H  0.78441739  0.39507545  0.44649150     0.15100
H2784       H  0.85670836  0.35397235  0.39542228     0.15100
C2785       C  0.83524029  0.32109461  0.42942418     0.36800
C2786       C  0.80882999  0.42898560  0.41569015     0.36700
N2787       N  0.84205313  0.29968774  0.43317947    -0.43600
N2788       N  0.80415089  0.45122849  0.41422008    -0.43600
C2789       C  0.16666590  0.90520887  0.63733292     0.00000
C2790       C  0.18415236  0.92526374  0.62977348    -0.11900
C2791       C  0.19488997  0.94272029  0.64833433     0.02300
C2792       C  0.18878226  0.93977265  0.67531700    -0.00100
C2793       C  0.17120547  0.91969184  0.68277536    -0.11800
C2794       C  0.15989583  0.90275479  0.66406726     0.02100
H2795       H  0.18945844  0.92725420  0.60922185     0.15100
H2796       H  0.16586217  0.91751058  0.70329286     0.15100
C2797       C  0.14191725  0.88263864  0.67294812     0.36800
C2798       C  0.21256694  0.96302239  0.63914590     0.36700
N2799       N  0.12745281  0.86665939  0.68032461    -0.43600
N2800       N  0.22663741  0.97934016  0.63171515    -0.43600
C2801       C  0.06341359  0.80652487  0.64999838     0.00000
C2802       C  0.05595162  0.82849813  0.63497915    -0.11900
C2803       C  0.07505718  0.84488662  0.62332125     0.02300
C2804       C  0.10208931  0.83894918  0.62627829    -0.00100
C2805       C  0.10931071  0.81728893  0.64175597    -0.11800
C2806       C  0.09048745  0.80118493  0.65345616     0.02100
H2807       H  0.03524516  0.83314428  0.63278190     0.15100
H2808       H  0.12998219  0.81259436  0.64433927     0.15100
C2809       C  0.09971282  0.77878794  0.66834622     0.36800
C2810       C  0.06622122  0.86721550  0.60823483     0.36700
N2811       N  0.10729614  0.76098389  0.68033117    -0.43600
N2812       N  0.05854276  0.88516446  0.59652408    -0.43600
C2813       C  0.11009717  0.90525424  0.56572330     0.00000
C2814       C  0.10893428  0.93149560  0.57412829    -0.11900
C2815       C  0.09163868  0.94935925  0.56220050     0.02300
C2816       C  0.07497533  0.94088522  0.54154098    -0.00100
C2817       C  0.07585945  0.91446634  0.53351358    -0.11800
C2818       C  0.09321629  0.89668169  0.54533994     0.02100
H2819       H  0.12156225  0.93802456  0.59007835     0.15100
H2820       H  0.06281445  0.90764278  0.51802935     0.15100
C2821       C  0.09213425  0.86940250  0.53735290     0.36800
C2822       C  0.09040236  0.97583082  0.57249232     0.36700
N2823       N  0.09119266  0.84750809  0.53110708    -0.43600
N2824       N  0.08931910  0.99699901  0.58084453    -0.43600
C2825       C  0.11831950  0.10406120  0.66272777     0.00000
C2826       C  0.14135702  0.09305911  0.65252785    -0.11900
C2827       C  0.15440816  0.07268339  0.66560824     0.02300
C2828       C  0.14467344  0.06314338  0.69002060    -0.00100
C2829       C  0.12016866  0.07222329  0.69872757    -0.11800
C2830       C  0.10668141  0.09197656  0.68507001     0.02100
H2831       H  0.14987236  0.10087701  0.63467457     0.15100
H2832       H  0.11162483  0.06422627  0.71654689     0.15100
C2833       C  0.08059678  0.09862640  0.69410815     0.36800
C2834       C  0.17772427  0.06222367  0.65320832     0.36700
N2835       N  0.05971758  0.10387317  0.70145820    -0.43600
N2836       N  0.19630319  0.05386878  0.64309687    -0.43600
C2837       C  0.03998966  0.08093838  0.56195835     0.00000
C2838       C  0.06472489  0.09135170  0.55513649    -0.11900
C2839       C  0.07726279  0.11036708  0.57070330     0.02300
C2840       C  0.06532780  0.11912450  0.59419930    -0.00100
C2841       C  0.04014688  0.10937186  0.60055584    -0.11800
C2842       C  0.02735776  0.09073185  0.58464526     0.02100
H2843       H  0.07442524  0.08460711  0.53739921     0.15100
H2844       H  0.03065653  0.11563714  0.61855970     0.15100
C2845       C  0.00183889  0.08128557  0.59281081     0.36800
C2846       C  0.10202647  0.12078723  0.56147973     0.36700
N2847       N  0.98133865  0.07383264  0.59935374    -0.43600
N2848       N  0.12194045  0.12874604  0.55382330    -0.43600
C2849       C  0.06961302  0.18894600  0.66779061     0.00000
C2850       C  0.04194992  0.19000597  0.67002764    -0.11900
C2851       C  0.02987671  0.20272893  0.69117947     0.02300
C2852       C  0.04535154  0.21537797  0.71037552    -0.00100
C2853       C  0.07265824  0.21607819  0.70749974    -0.11800
C2854       C  0.08491345  0.20270097  0.68688999     0.02100
H2855       H  0.02927500  0.17974047  0.65646672     0.15100
H2856       H  0.08458423  0.22578308  0.72235072     0.15100
C2857       C  0.11333747  0.20166548  0.68732094     0.36800
C2858       C  0.00149566  0.20224501  0.69292889     0.36700
N2859       N  0.13608190  0.20066805  0.68784656    -0.43600
N2860       N  0.97877490  0.20182583  0.69435544    -0.43600
C2861       C  0.06743746  0.04538819  0.43144459     0.00000
C2862       C  0.09067002  0.03324345  0.42332005    -0.11900
C2863       C  0.10722432  0.04532603  0.40492944     0.02300
C2864       C  0.10017537  0.06998620  0.39364101    -0.00100
C2865       C  0.07717794  0.08235341  0.40260755    -0.11800
C2866       C  0.06112488  0.07054201  0.42161800     0.02100
H2867       H  0.09603375  0.01430672  0.43161013     0.15100
H2868       H  0.07174947  0.10146672  0.39508389     0.15100
C2869       C  0.03959671  0.08557476  0.43237052     0.36800
C2870       C  0.13182371  0.03231440  0.39936735     0.36700
N2871       N  0.02282381  0.09799158  0.44140163    -0.43600
N2872       N  0.15140007  0.02159475  0.39496366    -0.43600
C2873       C  0.21288171  0.05120718  0.29352714     0.00000
C2874       C  0.21207604  0.07860712  0.29650303    -0.11900
C2875       C  0.19181442  0.09079127  0.31035762     0.02300
C2876       C  0.17144129  0.07549291  0.32197199    -0.00100
C2877       C  0.17125691  0.04816074  0.31704249    -0.11800
C2878       C  0.19164782  0.03601419  0.30311142     0.02100
H2879       H  0.22801248  0.09064069  0.28892769     0.15100
H2880       H  0.15570764  0.03569043  0.32425430     0.15100
C2881       C  0.18998996  0.00793390  0.29879355     0.36800
C2882       C  0.19384370  0.11896109  0.31397773     0.36700
N2883       N  0.18858755  0.98545095  0.29531901    -0.43600
N2884       N  0.19601637  0.14141276  0.31723118    -0.43600
C2885       C  0.90041370  0.87395469  0.66670328     0.00000
C2886       C  0.89157975  0.85668676  0.68654670    -0.11900
C2887       C  0.90722756  0.83569278  0.69552528     0.02300
C2888       C  0.93212452  0.83110204  0.68415446    -0.00100
C2889       C  0.94104103  0.84846588  0.66456783    -0.11800
C2890       C  0.92582793  0.86991284  0.65618230     0.02100
H2891       H  0.87216074  0.85935371  0.69490428     0.15100
H2892       H  0.96040814  0.84560245  0.65611462     0.15100
C2893       C  0.93769430  0.88809712  0.63789638     0.36800
C2894       C  0.89683573  0.81872318  0.71576932     0.36700
N2895       N  0.94771301  0.90244351  0.62333280    -0.43600
N2896       N  0.88842005  0.80524363  0.73206811    -0.43600
C2897       C  0.90526349  0.94708051  0.61058811     0.00000
C2898       C  0.90371956  0.93927643  0.58417026    -0.11900
C2899       C  0.92067335  0.94982843  0.56528662     0.02300
C2900       C  0.93941581  0.96904719  0.57254828    -0.00100
C2901       C  0.94092511  0.97713886  0.59889575    -0.11800
C2902       C  0.92434480  0.96602371  0.61800270     0.02100
H2903       H  0.88902846  0.92496861  0.57814296     0.15100
H2904       H  0.95568317  0.99147470  0.60469682     0.15100
C2905       C  0.92848622  0.97310675  0.64518245     0.36800
C2906       C  0.91800015  0.94105913  0.53839172     0.36700
N2907       N  0.93195604  0.97864495  0.66698689    -0.43600
N2908       N  0.91594759  0.93404687  0.51683691    -0.43600
C2909       C  0.83224715  0.94815155  0.67939621     0.00000
C2910       C  0.82538661  0.93924152  0.70479170    -0.11900
C2911       C  0.80324392  0.94898402  0.71796469     0.02300
C2912       C  0.78722313  0.96817785  0.70593007    -0.00100
C2913       C  0.79510013  0.97871601  0.68172056    -0.11800
C2914       C  0.81706386  0.96896182  0.66840272     0.02100
H2915       H  0.83610081  0.92360980  0.71427089     0.15100
H2916       H  0.78328822  0.99388716  0.67244571     0.15100
C2917       C  0.82226175  0.97968740  0.64260563     0.36800
C2918       C  0.79750104  0.93884306  0.74386290     0.36700
N2919       N  0.82632890  0.98843716  0.62199711    -0.43600
N2920       N  0.79295141  0.93074007  0.76462850    -0.43600
C2921       C  0.93190626  0.06648029  0.46266432     0.00000
C2922       C  0.90746124  0.07027643  0.47484547    -0.11900
C2923       C  0.88792579  0.08598186  0.46313374     0.02300
C2924       C  0.89325978  0.09963668  0.43933769    -0.00100
C2925       C  0.91795328  0.09595402  0.42754620    -0.11800
C2926       C  0.93671069  0.07903378  0.43832012     0.02100
H2927       H  0.90324373  0.06016314  0.49314588     0.15100
H2928       H  0.92307235  0.10651459  0.40979635     0.15100
C2929       C  0.96066043  0.07505189  0.42361786     0.36800
C2930       C  0.86241952  0.08647151  0.47552743     0.36700
N2931       N  0.97944297  0.07157378  0.41129366    -0.43600
N2932       N  0.84206663  0.08672651  0.48568836    -0.43600
C2933       C  0.82300463  0.17363087  0.43388387     0.00000
C2934       C  0.81874968  0.17483095  0.46117853    -0.11900
C2935       C  0.80500660  0.19582153  0.47249042     0.02300
C2936       C  0.79507153  0.21631196  0.45641925    -0.00100
C2937       C  0.79723542  0.21393140  0.42909279    -0.11800
C2938       C  0.81070479  0.19293258  0.41775889     0.02100
H2939       H  0.82635386  0.15987231  0.47415267     0.15100
H2940       H  0.78909064  0.22902019  0.41638183     0.15100
C2941       C  0.81243017  0.19246021  0.38937445     0.36800
C2942       C  0.80130071  0.19550126  0.50065027     0.36700
N2943       N  0.81375350  0.19201306  0.36666727    -0.43600
N2944       N  0.79830753  0.19518821  0.52319733    -0.43600
C2945       C  0.93837158  0.90032471  0.40117910     0.00000
C2946       C  0.95786547  0.89033208  0.41818326    -0.11900
C2947       C  0.97176758  0.90686804  0.43551884     0.02300
C2948       C  0.96683112  0.93423715  0.43559760    -0.00100
C2949       C  0.94758730  0.94421747  0.41855193    -0.11800
C2950       C  0.93310790  0.92772035  0.40187566     0.02100
H2951       H  0.96200254  0.86939406  0.41825405     0.15100
H2952       H  0.94318993  0.96512141  0.41882820     0.15100
C2953       C  0.91297772  0.94007045  0.38617547     0.36800
C2954       C  0.99124760  0.89527077  0.45263446     0.36700
N2955       N  0.89667703  0.95093970  0.37458392    -0.43600
N2956       N  0.00680210  0.88592180  0.46639332    -0.43600
C2957       C  0.93290369  0.82684116  0.33111339     0.00000
C2958       C  0.95974876  0.82977581  0.32458111    -0.11900
C2959       C  0.97057548  0.81748647  0.30246603     0.02300
C2960       C  0.95475177  0.80137472  0.28632621    -0.00100
C2961       C  0.92852540  0.79700396  0.29336893    -0.11800
C2962       C  0.91733631  0.80993290  0.31493212     0.02100
H2963       H  0.97231487  0.84307722  0.33537633     0.15100
H2964       H  0.91623640  0.78464405  0.28098459     0.15100
C2965       C  0.88924508  0.80711106  0.31827797     0.36800
C2966       C  0.99801598  0.82205152  0.29660161     0.36700
N2967       N  0.86671964  0.80482630  0.32074039    -0.43600
N2968       N  0.01997430  0.82575180  0.29185709    -0.43600
C2969       C  0.70676362  0.72539482  0.45515121     0.00000
C2970       C  0.70755019  0.72215561  0.42792753    -0.11900
C2971       C  0.69382511  0.70158772  0.41574586     0.02300
C2972       C  0.67997871  0.68255877  0.43104306    -0.00100
C2973       C  0.68086504  0.68519997  0.45866180    -0.11800
C2974       C  0.69349205  0.70663203  0.47061999     0.02100
H2975       H  0.71749430  0.73680185  0.41597873     0.15100
H2976       H  0.67074442  0.67161810  0.47137564     0.15100
C2977       C  0.69222192  0.70916018  0.49888313     0.36800
C2978       C  0.69207409  0.70245557  0.38741526     0.36700
N2979       N  0.69107058  0.71128676  0.52150172    -0.43600
N2980       N  0.69016825  0.70400352  0.36480032    -0.43600
C2981       C  0.79193099  0.72203507  0.54428245     0.00000
C2982       C  0.79385381  0.71947233  0.57164512    -0.11900
C2983       C  0.80702543  0.69821915  0.58311610     0.02300
C2984       C  0.81900897  0.67860618  0.56715252    -0.00100
C2985       C  0.81518632  0.68016798  0.53978483    -0.11800
C2986       C  0.80193478  0.70148148  0.52832581     0.02100
H2987       H  0.78586142  0.73467370  0.58428192     0.15100
H2988       H  0.82293009  0.66529602  0.52683259     0.15100
C2989       C  0.79901531  0.70149797  0.50005958     0.36800
C2990       C  0.80895573  0.69789527  0.61148500     0.36700
N2991       N  0.79673515  0.70144606  0.47741612    -0.43600
N2992       N  0.81053812  0.69766484  0.63418463    -0.43600
C2993       C  0.67251586  0.81973480  0.57014245     0.00000
C2994       C  0.64702498  0.80940530  0.56689397    -0.11900
C2995       C  0.62591213  0.81856152  0.58210145     0.02300
C2996       C  0.63003370  0.83862455  0.60093726    -0.00100
C2997       C  0.65519962  0.84972699  0.60336504    -0.11800
C2998       C  0.67639887  0.84035078  0.58845556     0.02100
H2999       H  0.64355116  0.79420169  0.55231141     0.15100
H3000       H  0.65838652  0.86573670  0.61707082     0.15100
C3001       C  0.70160062  0.85321234  0.59139076     0.36800
C3002       C  0.59996365  0.80805086  0.57702572     0.36700
N3003       N  0.72176727  0.86359589  0.59367470    -0.43600
N3004       N  0.57912112  0.79977794  0.57291887    -0.43600
C3005       C  0.82348342  0.82846994  0.43702407     0.00000
C3006       C  0.82145559  0.85275812  0.42401587    -0.11900
C3007       C  0.84103220  0.86179412  0.40682541     0.02300
C3008       C  0.86371619  0.84626890  0.40192912    -0.00100
C3009       C  0.86596306  0.82214558  0.41560990    -0.11800
C3010       C  0.84629194  0.81320373  0.43287110     0.02100
H3011       H  0.80418426  0.86487959  0.42715971     0.15100
H3012       H  0.88346597  0.81023984  0.41326219     0.15100
C3013       C  0.85069186  0.78888098  0.44689544     0.36800
C3014       C  0.83647467  0.88710249  0.39488504     0.36700
N3015       N  0.85433245  0.76943980  0.45819264    -0.43600
N3016       N  0.83202828  0.90779275  0.38646434    -0.43600
C3017       C  0.80434982  0.86468758  0.56383270     0.00000
C3018       C  0.82391322  0.85095609  0.57787151    -0.11900
C3019       C  0.84044312  0.86383689  0.59584781     0.02300
C3020       C  0.83715045  0.89093873  0.60059413    -0.00100
C3021       C  0.81867758  0.90500247  0.58548841    -0.11800
C3022       C  0.80253011  0.89225032  0.56705633     0.02100
H3023       H  0.82605225  0.82989068  0.57511019     0.15100
H3024       H  0.81630696  0.92598251  0.58871719     0.15100
C3025       C  0.78344156  0.90775957  0.55283425     0.36800
C3026       C  0.85964121  0.84846270  0.61002992     0.36700
N3027       N  0.76823045  0.92022040  0.54134850    -0.43600
N3028       N  0.87513706  0.83600387  0.62111962    -0.43600
C3029       C  0.69019835  0.86601517  0.44616625     0.00000
C3030       C  0.66826742  0.85373969  0.43421996    -0.11900
C3031       C  0.65414798  0.86592063  0.41390193     0.02300
C3032       C  0.66169123  0.89113159  0.40512258    -0.00100
C3033       C  0.68237300  0.90416596  0.41824832    -0.11800
C3034       C  0.69661196  0.89200730  0.43843914     0.02100
H3035       H  0.66260576  0.83397635  0.43998645     0.15100
H3036       H  0.68804060  0.92382715  0.41215362     0.15100
C3037       C  0.71805367  0.90664008  0.45011827     0.36800
C3038       C  0.63324154  0.85122692  0.40141817     0.36700
N3039       N  0.73522740  0.91846039  0.45936980    -0.43600
N3040       N  0.61642993  0.83932633  0.39162781    -0.43600
C3041       C  0.71730721  0.96179090  0.29493656     0.00000
C3042       C  0.70723801  0.97588046  0.31637416    -0.11900
C3043       C  0.68562804  0.96670944  0.33070542     0.02300
C3044       C  0.67235161  0.94325669  0.32303087    -0.00100
C3045       C  0.68290996  0.92906435  0.30156919    -0.11800
C3046       C  0.70491082  0.93802987  0.28761539     0.02100
H3047       H  0.71674948  0.99402182  0.32250817     0.15100
H3048       H  0.67530168  0.90987004  0.29640941     0.15100
C3049       C  0.71542315  0.92129517  0.26722419     0.36800
C3050       C  0.67891703  0.98135018  0.35404893     0.36700
N3051       N  0.72389093  0.90776657  0.25101856    -0.43600
N3052       N  0.67395427  0.99356624  0.37258028    -0.43600
C3053       C  0.66817903  0.07002533  0.18133302     0.00000
C3054       C  0.67270567  0.04275251  0.17919907    -0.11900
C3055       C  0.69401991  0.03069494  0.19176351     0.02300
C3056       C  0.71161038  0.04591617  0.20722727    -0.00100
C3057       C  0.70592723  0.07265565  0.21112001    -0.11800
C3058       C  0.68487546  0.08479578  0.19829644     0.02100
H3059       H  0.66102772  0.03066556  0.16620789     0.15100
H3060       H  0.71880255  0.08466330  0.22323055     0.15100
C3061       C  0.68244893  0.11298502  0.20139703     0.36800
C3062       C  0.69772263  0.00286915  0.18711198     0.36700
N3063       N  0.68056452  0.13555276  0.20392903    -0.43600
N3064       N  0.70058468  0.98061126  0.18317353    -0.43600
C3065       C  0.81571309  0.07396943  0.32338158     0.00000
C3066       C  0.82577364  0.06211223  0.34641357    -0.11900
C3067       C  0.83659525  0.07715412  0.36683295     0.02300
C3068       C  0.83728593  0.10472716  0.36475286    -0.00100
C3069       C  0.82755022  0.11678557  0.34192713    -0.11800
C3070       C  0.81711496  0.10178038  0.32118587     0.02100
H3071       H  0.82533196  0.04088082  0.34859983     0.15100
H3072       H  0.82809729  0.13808564  0.34035211     0.15100
C3073       C  0.80806816  0.11565131  0.29811911     0.36800
C3074       C  0.84607301  0.06388318  0.39009917     0.36700
N3075       N  0.80099051  0.12688662  0.27962394    -0.43600
N3076       N  0.85362251  0.05317926  0.40871949    -0.43600
C3077       C  0.81817596  0.94135067  0.17349357     0.00000
C3078       C  0.83895262  0.94911566  0.15699218    -0.11900
C3079       C  0.84753472  0.93315150  0.13624802     0.02300
C3080       C  0.83571482  0.90830489  0.13194077    -0.00100
C3081       C  0.81481181  0.90057415  0.14842963    -0.11800
C3082       C  0.80588275  0.91683659  0.16887116     0.02100
H3083       H  0.84831830  0.96809285  0.16003936     0.15100
H3084       H  0.80561966  0.88149024  0.14563178     0.15100
C3085       C  0.78483359  0.90737289  0.18540144     0.36800
C3086       C  0.86761600  0.94358860  0.11913487     0.36700
N3087       N  0.76795198  0.89976594  0.19863077    -0.43600
N3088       N  0.88370394  0.95243219  0.10568793    -0.43600
C3089       C  0.85394039  0.94564791  0.30236113     0.00000
C3090       C  0.88147338  0.94591500  0.30441386    -0.11900
C3091       C  0.89456402  0.92682901  0.31938219     0.02300
C3092       C  0.87996207  0.90748193  0.33299561    -0.00100
C3093       C  0.85273908  0.90642387  0.32995695    -0.11800
C3094       C  0.83956575  0.92527662  0.31500589     0.02100
H3095       H  0.89273970  0.96111938  0.29453900     0.15100
H3096       H  0.84181680  0.89023120  0.33856755     0.15100
C3097       C  0.81141165  0.92230327  0.31204712     0.36800
C3098       C  0.92296076  0.92740094  0.32056756     0.36700
N3099       N  0.78887758  0.91988262  0.30970418    -0.43600
N3100       N  0.94570805  0.92772816  0.32157585    -0.43600
C3101       C  0.88171446  0.10770086  0.16406243     0.00000
C3102       C  0.85483643  0.10410356  0.15939900    -0.11900
C3103       C  0.84043932  0.08546793  0.17373465     0.02300
C3104       C  0.85314954  0.06981346  0.19308268    -0.00100
C3105       C  0.88048524  0.07213293  0.19620034    -0.11800
C3106       C  0.89477719  0.09090143  0.18198926     0.02100
H3107       H  0.84481457  0.11673507  0.14541004     0.15100
H3108       H  0.89060375  0.06001354  0.21055556     0.15100
C3109       C  0.92280472  0.09276214  0.18642642     0.36800
C3110       C  0.81265851  0.08304164  0.16814836     0.36700
N3111       N  0.94523874  0.09434523  0.19005275    -0.43600
N3112       N  0.79040422  0.08119731  0.16361763    -0.43600
C3113       C  0.06518778  0.32841929  0.17447385     0.00000
C3114       C  0.03763793  0.32637671  0.17714130    -0.11900
C3115       C  0.02639982  0.31343303  0.19877997     0.02300
C3116       C  0.04268435  0.30154639  0.21782983    -0.00100
C3117       C  0.06986589  0.30165795  0.21428508    -0.11800
C3118       C  0.08124495  0.31522771  0.19333879     0.02100
H3119       H  0.02455934  0.33571012  0.16327953     0.15100
H3120       H  0.08240351  0.29244594  0.22891885     0.15100
C3121       C  0.10960567  0.31744521  0.19351320     0.36800
C3122       C  0.99808686  0.31253755  0.20103479     0.36700
N3123       N  0.13225498  0.31971149  0.19424959    -0.43600
N3124       N  0.97540480  0.31175872  0.20285675    -0.43600
C3125       C  0.95879109  0.21616771  0.21520903     0.00000
C3126       C  0.93137252  0.21481265  0.21290814    -0.11900
C3127       C  0.91938077  0.20206999  0.19174959     0.02300
C3128       C  0.93484059  0.18968410  0.17205344    -0.00100
C3129       C  0.96234994  0.19319191  0.17319779    -0.11800
C3130       C  0.97433889  0.20622407  0.19441454     0.02100
H3131       H  0.91903793  0.22293848  0.22826985     0.15100
H3132       H  0.97499191  0.18535579  0.15813603     0.15100
C3133       C  0.00261472  0.20921188  0.19404918     0.36800
C3134       C  0.89098107  0.20102549  0.19177493     0.36700
N3135       N  0.02525753  0.21165078  0.19362500    -0.43600
N3136       N  0.86823426  0.20047259  0.19216056    -0.43600
C3137       C  0.06517166  0.18538954  0.32237145     0.00000
C3138       C  0.08860532  0.18197136  0.30841540    -0.11900
C3139       C  0.10688045  0.16258716  0.31562923     0.02300
C3140       C  0.10166249  0.14545896  0.33719199    -0.00100
C3141       C  0.07786231  0.14881543  0.35080085    -0.11800
C3142       C  0.05976945  0.16839229  0.34370759     0.02100
H3143       H  0.09300661  0.19501710  0.29210472     0.15100
H3144       H  0.07290595  0.13576300  0.36678454     0.15100
C3145       C  0.03528260  0.16978807  0.35803066     0.36800
C3146       C  0.13090599  0.16177881  0.30063043     0.36700
N3147       N  0.01564584  0.17083097  0.36946365    -0.43600
N3148       N  0.14970041  0.16152549  0.28783957    -0.43600
C3149       C  0.92890469  0.33233242  0.31520805     0.00000
C3150       C  0.93622197  0.35900277  0.31284491    -0.11900
C3151       C  0.92034864  0.37916389  0.32286420     0.02300
C3152       C  0.89659540  0.37298098  0.33565324    -0.00100
C3153       C  0.88909278  0.34655689  0.33819881    -0.11800
C3154       C  0.90493564  0.32624645  0.32820044     0.02100
H3155       H  0.95448838  0.36422623  0.30316278     0.15100
H3156       H  0.87066073  0.34179925  0.34781912     0.15100
C3157       C  0.89635087  0.29944604  0.33235675     0.36800
C3158       C  0.92889709  0.40615073  0.32003642     0.36700
N3159       N  0.88948239  0.27797152  0.33575356    -0.43600
N3160       N  0.93565946  0.42781521  0.31789906    -0.43600
C3161       C  0.93970429  0.19886033  0.35439049     0.00000
C3162       C  0.93943169  0.19850217  0.38198498    -0.11900
C3163       C  0.92210891  0.18199801  0.39567139     0.02300
C3164       C  0.90473052  0.16527036  0.38174852    -0.00100
C3165       C  0.90651932  0.16380462  0.35441559    -0.11800
C3166       C  0.92373340  0.18035067  0.34061390     0.02100
H3167       H  0.95188401  0.21197807  0.39293246     0.15100
H3168       H  0.89328935  0.15085198  0.34371316     0.15100
C3169       C  0.92405398  0.17802482  0.31230841     0.36800
C3170       C  0.92179691  0.18320899  0.42404628     0.36700
N3171       N  0.92415699  0.17610031  0.28963586    -0.43600
N3172       N  0.92139873  0.18416343  0.44677168    -0.43600
C3173       C  0.05676991  0.31847181  0.35797111     0.00000
C3174       C  0.06980225  0.33898441  0.34436406    -0.11900
C3175       C  0.09030614  0.35348695  0.35596108     0.02300
C3176       C  0.09826862  0.34777410  0.38181722    -0.00100
C3177       C  0.08434525  0.32846483  0.39601651    -0.11800
C3178       C  0.06390113  0.31386195  0.38449018     0.02100
H3179       H  0.06467324  0.34324066  0.32411382     0.15100
H3180       H  0.08993454  0.32429968  0.41618551     0.15100
C3181       C  0.05109149  0.29413596  0.40043476     0.36800
C3182       C  0.10388590  0.37290018  0.34028926     0.36700
N3183       N  0.04093834  0.27838144  0.41337778    -0.43600
N3184       N  0.11471502  0.38847869  0.32769087    -0.43600
C3185       C  0.78482652  0.55070817  0.20319207     0.00000
C3186       C  0.79467108  0.57508297  0.21130271    -0.11900
C3187       C  0.81688095  0.58622629  0.19953423     0.02300
C3188       C  0.83091463  0.57232566  0.17961802    -0.00100
C3189       C  0.82126837  0.54722871  0.17239208    -0.11800
C3190       C  0.79871756  0.53639616  0.18396040     0.02100
H3191       H  0.78411656  0.58620474  0.22612963     0.15100
H3192       H  0.83017463  0.53638370  0.15646714     0.15100
C3193       C  0.79026947  0.51054590  0.17555681     0.36800
C3194       C  0.82331945  0.61262541  0.20781028     0.36700
N3195       N  0.78351165  0.48983083  0.16884026    -0.43600
N3196       N  0.82798697  0.63363259  0.21530717    -0.43600
C3197       C  0.78623395  0.46605228  0.28979430     0.00000
C3198       C  0.78741807  0.43865942  0.29275839    -0.11900
C3199       C  0.80768879  0.42671900  0.30702234     0.02300
C3200       C  0.82756910  0.44223255  0.31929925    -0.00100
C3201       C  0.82746208  0.46957003  0.31441071    -0.11800
C3202       C  0.80724464  0.48145104  0.29978403     0.02100
H3203       H  0.77182860  0.42642668  0.28474067     0.15100
H3204       H  0.84267025  0.48218351  0.32219850     0.15100
C3205       C  0.80893658  0.50945506  0.29501072     0.36800
C3206       C  0.80669940  0.39839163  0.30971062     0.36700
N3207       N  0.81046119  0.53185617  0.29108679    -0.43600
N3208       N  0.80587337  0.37572161  0.31189168    -0.43600
C3209       C  0.66339146  0.40506407  0.13190679     0.00000
C3210       C  0.66253263  0.43228350  0.12785337    -0.11900
C3211       C  0.67279687  0.44992371  0.14651862     0.02300
C3212       C  0.68435621  0.44037046  0.17018681    -0.00100
C3213       C  0.68482015  0.41291342  0.17422074    -0.11800
C3214       C  0.67462458  0.39537443  0.15537225     0.02100
H3215       H  0.65436467  0.43982283  0.10966242     0.15100
H3216       H  0.69319819  0.40500577  0.19216897     0.15100
C3217       C  0.67531587  0.36747582  0.16078911     0.36800
C3218       C  0.67074575  0.47767005  0.14063259     0.36700
N3219       N  0.67572248  0.34510937  0.16511516    -0.43600
N3220       N  0.66902568  0.49986425  0.13576015    -0.43600
C3221       C  0.68161051  0.57368443  0.32153945     0.00000
C3222       C  0.69594006  0.59699369  0.32505705    -0.11900
C3223       C  0.68896590  0.61546943  0.34437358     0.02300
C3224       C  0.66727542  0.61064507  0.36138453    -0.00100
C3225       C  0.65337447  0.58686328  0.35814236    -0.11800
C3226       C  0.66014211  0.56863058  0.33852514     0.02100
H3227       H  0.71231423  0.60121240  0.31205685     0.15100
H3228       H  0.63727728  0.58212747  0.37125917     0.15100
C3229       C  0.64514892  0.54447475  0.33692566     0.36800
C3230       C  0.70429371  0.63934760  0.34515272     0.36700
N3231       N  0.63311500  0.52513683  0.33570107    -0.43600
N3232       N  0.71743750  0.65796754  0.34518918    -0.43600
C3233       C  0.64383389  0.56891412  0.19218126     0.00000
C3234       C  0.63246793  0.56368094  0.16758978    -0.11900
C3235       C  0.62028818  0.58378689  0.15298531     0.02300
C3236       C  0.61999277  0.60991279  0.16280912    -0.00100
C3237       C  0.63238464  0.61498310  0.18712452    -0.11800
C3238       C  0.64385864  0.59482215  0.20187702     0.02100
H3239       H  0.63295603  0.54377257  0.15987833     0.15100
H3240       H  0.63307822  0.63488740  0.19481320     0.15100
C3241       C  0.65608037  0.60126701  0.22674591     0.36800
C3242       C  0.60774134  0.57653785  0.12858314     0.36700
N3243       N  0.66586314  0.60634574  0.24668143    -0.43600
N3244       N  0.59802799  0.57013430  0.10899880    -0.43600
C3245       C  0.62125439  0.40984176  0.33465108     0.00000
C3246       C  0.64837399  0.41318459  0.33769531    -0.11900
C3247       C  0.66194896  0.43178616  0.32255362     0.02300
C3248       C  0.64818917  0.44721443  0.30373891    -0.00100
C3249       C  0.62066663  0.44559945  0.30276930    -0.11800
C3250       C  0.60714666  0.42720265  0.31811892     0.02100
H3251       H  0.65915319  0.40032003  0.35088691     0.15100
H3252       H  0.60973999  0.45789215  0.28917488     0.15100
C3253       C  0.57880099  0.42613664  0.31619902     0.36800
C3254       C  0.68994817  0.43449326  0.32679050     0.36700
N3255       N  0.55609271  0.42527517  0.31470323    -0.43600
N3256       N  0.71235422  0.43668690  0.33030775    -0.43600
C3257       C  0.29429317  0.29938903  0.54054249     0.00000
C3258       C  0.31901998  0.30607774  0.53027438    -0.11900
C3259       C  0.33372220  0.32704021  0.54032222     0.02300
C3260       C  0.32364395  0.34282269  0.56104002    -0.00100
C3261       C  0.29787773  0.33720214  0.56992026    -0.11800
C3262       C  0.28326649  0.31593697  0.55992618     0.02100
H3263       H  0.32761409  0.29414328  0.51483839     0.15100
H3264       H  0.28933580  0.34794887  0.58604310     0.15100
C3265       C  0.25769633  0.31088658  0.57121614     0.36800
C3266       C  0.35987040  0.33036156  0.52980457     0.36700
N3267       N  0.23722136  0.30697554  0.58035285    -0.43600
N3268       N  0.38064586  0.33261762  0.52082951    -0.43600
C3269       C  0.20616940  0.29539092  0.45787366     0.00000
C3270       C  0.18021400  0.30033785  0.46549235    -0.11900
C3271       C  0.16635176  0.32170782  0.45543899     0.02300
C3272       C  0.17834556  0.33882505  0.43684728    -0.00100
C3273       C  0.20513896  0.33476209  0.43078352    -0.11800
C3274       C  0.21900889  0.31332918  0.44111246     0.02100
H3275       H  0.17035188  0.28695684  0.47889616     0.15100
H3276       H  0.21559515  0.34758531  0.41756383     0.15100
C3277       C  0.24656884  0.31064806  0.43475051     0.36800
C3278       C  0.13934393  0.32469398  0.46382846     0.36700
N3279       N  0.26868516  0.30860061  0.42979550    -0.43600
N3280       N  0.11776693  0.32708306  0.47064128    -0.43600
C3281       C  0.32764839  0.19885620  0.43142749     0.00000
C3282       C  0.32320595  0.17495722  0.41836963    -0.11900
C3283       C  0.34297519  0.16285836  0.40341310     0.02300
C3284       C  0.36772735  0.17538917  0.40013581    -0.00100
C3285       C  0.37214398  0.19927854  0.41367584    -0.11800
C3286       C  0.35260126  0.21081820  0.42937820     0.02100
H3287       H  0.30435677  0.16514822  0.42065786     0.15100
H3288       H  0.39109996  0.20898528  0.41220495     0.15100
C3289       C  0.35843046  0.23526767  0.44267764     0.36800
C3290       C  0.33691006  0.13736706  0.39254542     0.36700
N3291       N  0.36311381  0.25486851  0.45332657    -0.43600
N3292       N  0.33130041  0.11659592  0.38501946    -0.43600
C3293       C  0.14064742  0.17175296  0.60047004     0.00000
C3294       C  0.13432895  0.18750109  0.57865298    -0.11900
C3295       C  0.15401731  0.19720708  0.56192308     0.02300
C3296       C  0.18066346  0.19127525  0.56697223    -0.00100
C3297       C  0.18699246  0.17555371  0.58879608    -0.11800
C3298       C  0.16730687  0.16615465  0.60574737     0.02100
H3299       H  0.11387842  0.19207082  0.57459952     0.15100
H3300       H  0.20743679  0.17092578  0.59280496     0.15100
C3301       C  0.17513787  0.15221529  0.62918094     0.36800
C3302       C  0.14632122  0.21213665  0.53901509     0.36700
N3303       N  0.18183331  0.14148084  0.64810300    -0.43600
N3304       N  0.14014800  0.22396637  0.52056895    -0.43600
C3305       C  0.33499307  0.12808901  0.59695135     0.00000
C3306       C  0.34471351  0.15284419  0.58965740    -0.11900
C3307       C  0.33345923  0.16687125  0.56879652     0.02300
C3308       C  0.31116339  0.15650755  0.55540866    -0.00100
C3309       C  0.30234861  0.13117604  0.56200593    -0.11800
C3310       C  0.31416511  0.11683715  0.58219184     0.02100
H3311       H  0.36115533  0.16133271  0.60034837     0.15100
H3312       H  0.28587529  0.12246688  0.55154353     0.15100
C3313       C  0.30480936  0.09033613  0.58646583     0.36800
C3314       C  0.34565551  0.19154018  0.56157087     0.36700
N3315       N  0.29680260  0.06920446  0.58938228    -0.43600
N3316       N  0.35565107  0.21117344  0.55570947    -0.43600
C3317       C  0.16399645  0.12875400  0.40388414     0.00000
C3318       C  0.15944528  0.15569869  0.40733396    -0.11900
C3319       C  0.17431104  0.17023518  0.42550433     0.02300
C3320       C  0.19438177  0.15769587  0.44030997    -0.00100
C3321       C  0.19704027  0.13029117  0.43856945    -0.11800
C3322       C  0.18196603  0.11578075  0.42067170     0.02100
H3323       H  0.14511107  0.16561791  0.39500986     0.15100
H3324       H  0.21168828  0.12027007  0.45042039     0.15100
C3325       C  0.18548193  0.08759754  0.41977796     0.36800
C3326       C  0.16835424  0.19786037  0.42870580     0.36700
N3327       N  0.18837435  0.06501635  0.41920831    -0.43600
N3328       N  0.16343410  0.21993882  0.43141015    -0.43600
C3329       C  0.43939138  0.18583081  0.32924948     0.00000
C3330       C  0.43053258  0.21132706  0.32261603    -0.11900
C3331       C  0.43976870  0.22458262  0.30030767     0.02300
C3332       C  0.45876383  0.21264467  0.28393168    -0.00100
C3333       C  0.46885188  0.18802390  0.29129420    -0.11800
C3334       C  0.45933902  0.17454354  0.31326567     0.02100
H3335       H  0.41498825  0.22072895  0.33344488     0.15100
H3336       H  0.48378762  0.17867943  0.27930282     0.15100
C3337       C  0.46938722  0.14829784  0.31758791     0.36800
C3338       C  0.42790685  0.24965238  0.29402262     0.36700
N3339       N  0.47764179  0.12732654  0.32084572    -0.43600
N3340       N  0.41823827  0.26965855  0.28903354    -0.43600
C3341       C  0.56833844  0.32825083  0.32409154     0.00000
C3342       C  0.54099603  0.32388746  0.32350969    -0.11900
C3343       C  0.52902539  0.31027167  0.30266265     0.02300
C3344       C  0.54440633  0.30061206  0.28154263    -0.00100
C3345       C  0.57180690  0.30316560  0.28306488    -0.11800
C3346       C  0.58381154  0.31654327  0.30392186     0.02100
H3347       H  0.52850850  0.33127754  0.33894219     0.15100
H3348       H  0.58400447  0.29540999  0.26740972     0.15100
C3349       C  0.61217252  0.31892021  0.30330390     0.36800
C3350       C  0.50089071  0.30629516  0.30383924     0.36700
N3351       N  0.63485453  0.32092039  0.30277157    -0.43600
N3352       N  0.47836331  0.30309710  0.30488094    -0.43600
C3353       C  0.60076914  0.14074179  0.16238009     0.00000
C3354       C  0.57932218  0.13393290  0.17830126    -0.11900
C3355       C  0.56270625  0.15323392  0.18874749     0.02300
C3356       C  0.56761931  0.18021780  0.18355793    -0.00100
C3357       C  0.58913728  0.18693460  0.16751890    -0.11800
C3358       C  0.60554453  0.16750736  0.15683675     0.02100
H3359       H  0.57575628  0.11336364  0.18286898     0.15100
H3360       H  0.59303487  0.20745138  0.16303662     0.15100
C3361       C  0.62764746  0.17571550  0.14108568     0.36800
C3362       C  0.54130880  0.14465556  0.20534437     0.36700
N3363       N  0.64524821  0.18276726  0.12852051    -0.43600
N3364       N  0.52413805  0.13775644  0.21859108    -0.43600
C3365       C  0.43224378  0.32697515  0.18003563     0.00000
C3366       C  0.43285338  0.35032903  0.19476482    -0.11900
C3367       C  0.41774600  0.37217862  0.18735538     0.02300
C3368       C  0.40112167  0.37074153  0.16502684    -0.00100
C3369       C  0.40043930  0.34730114  0.15046801    -0.11800
C3370       C  0.41565178  0.32551795  0.15776818     0.02100
H3371       H  0.44592245  0.35187403  0.21156950     0.15100
H3372       H  0.38772423  0.34573074  0.13373404     0.15100
C3373       C  0.41312799  0.30167722  0.14242692     0.36800
C3374       C  0.42086803  0.39615255  0.20230722     0.36700
N3375       N  0.41106266  0.28257700  0.13017313    -0.43600
N3376       N  0.42346121  0.41529415  0.21439013    -0.43600
C3377       C  0.55714931  0.31196993  0.13983292     0.00000
C3378       C  0.56929254  0.33304829  0.15316614    -0.11900
C3379       C  0.58791332  0.34912365  0.14071722     0.02300
C3380       C  0.59492215  0.34398543  0.11444993    -0.00100
C3381       C  0.58106343  0.32440663  0.10047054    -0.11800
C3382       C  0.56234009  0.30842624  0.11285469     0.02100
H3383       H  0.56492877  0.33637232  0.17376656     0.15100
H3384       H  0.58588612  0.32068029  0.08005148     0.15100
C3385       C  0.55051611  0.28726675  0.09795639     0.36800
C3386       C  0.60061167  0.36948760  0.15594206     0.36700
N3387       N  0.54112895  0.27029702  0.08596362    -0.43600
N3388       N  0.61045562  0.38591075  0.16831426    -0.43600
C3389       C  0.39920216  0.16844111  0.11703250     0.00000
C3390       C  0.41512573  0.18599513  0.10279666    -0.11900
C3391       C  0.43612094  0.19930095  0.11473716     0.02300
C3392       C  0.44145157  0.19536881  0.14177400    -0.00100
C3393       C  0.42659083  0.17626097  0.15543829    -0.11800
C3394       C  0.40572030  0.16280563  0.14333745     0.02100
H3395       H  0.41079910  0.18971338  0.08223495     0.15100
H3396       H  0.43054256  0.17244050  0.17603848     0.15100
C3397       C  0.39046942  0.14453244  0.15885633     0.36800
C3398       C  0.45159271  0.21682305  0.09859024     0.36700
N3399       N  0.37843201  0.12980844  0.17138544    -0.43600
N3400       N  0.46396259  0.23076011  0.08550186    -0.43600
C3401       C  0.33178756  0.57123022  0.32238631     0.00000
C3402       C  0.32602754  0.57956362  0.29651414    -0.11900
C3403       C  0.30478666  0.56897681  0.28237374     0.02300
C3404       C  0.28885099  0.54934791  0.29385265    -0.00100
C3405       C  0.29540930  0.53986836  0.31886566    -0.11800
C3406       C  0.31624877  0.55059063  0.33319051     0.02100
H3407       H  0.33697434  0.59521629  0.28730546     0.15100
H3408       H  0.28339329  0.52469468  0.32790692     0.15100
C3409       C  0.31990249  0.54097397  0.35970390     0.36800
C3410       C  0.29988127  0.57869518  0.25613123     0.36700
N3411       N  0.32266916  0.53320678  0.38091771    -0.43600
N3412       N  0.29601256  0.58653579  0.23511631    -0.43600
C3413       C  0.33114745  0.44026154  0.18201196     0.00000
C3414       C  0.32530027  0.46730035  0.17926729    -0.11900
C3415       C  0.30352119  0.47858289  0.19161801     0.02300
C3416       C  0.28702547  0.46297656  0.20745394    -0.00100
C3417       C  0.29324990  0.43649855  0.21148294    -0.11800
C3418       C  0.31450322  0.42487588  0.19852304     0.02100
H3419       H  0.33637783  0.47973500  0.16613445     0.15100
H3420       H  0.28047815  0.42442712  0.22361106     0.15100
C3421       C  0.31719383  0.39667345  0.20110095     0.36800
C3422       C  0.29838355  0.50625444  0.18744807     0.36700
N3423       N  0.31918514  0.37407361  0.20324255    -0.43600
N3424       N  0.29426985  0.52840322  0.18406308    -0.43600
C3425       C  0.16566806  0.60756415  0.13467210     0.00000
C3426       C  0.18600196  0.58990235  0.12834911    -0.11900
C3427       C  0.19713468  0.57333323  0.14743923     0.02300
C3428       C  0.18846670  0.57469252  0.17375243    -0.00100
C3429       C  0.16803945  0.59217621  0.18006970    -0.11800
C3430       C  0.15633686  0.60818077  0.16081187     0.02100
H3431       H  0.19325955  0.58906369  0.10833101     0.15100
H3432       H  0.16077850  0.59293622  0.20009588     0.15100
C3433       C  0.13511924  0.62521138  0.16873994     0.36800
C3434       C  0.21795659  0.55568837  0.13966201     0.36700
N3435       N  0.11792927  0.63839748  0.17563922    -0.43600
N3436       N  0.23461906  0.54150486  0.13345069    -0.43600
C3437       C  0.16676495  0.41043277  0.36636427     0.00000
C3438       C  0.18516541  0.40134097  0.34779516    -0.11900
C3439       C  0.19441137  0.41773997  0.32760588     0.02300
C3440       C  0.18475451  0.44365690  0.32531858    -0.00100
C3441       C  0.16668047  0.45285479  0.34400943    -0.11800
C3442       C  0.15804328  0.43676772  0.36464607     0.02100
H3443       H  0.19212606  0.38119663  0.34883804     0.15100
H3444       H  0.15960338  0.47295863  0.34273446     0.15100
C3445       C  0.14150913  0.44845046  0.38448295     0.36800
C3446       C  0.21296607  0.40716022  0.30894485     0.36700
N3447       N  0.12846644  0.45828622  0.40028838    -0.43600
N3448       N  0.22788173  0.39866967  0.29403605    -0.43600
C3449       C  0.11986168  0.60878254  0.33242797     0.00000
C3450       C  0.14671946  0.60549098  0.33748817    -0.11900
C3451       C  0.16167651  0.58763581  0.32282526     0.02300
C3452       C  0.14949801  0.57222182  0.30294311    -0.00100
C3453       C  0.12236658  0.57476838  0.29875508    -0.11800
C3454       C  0.10759229  0.59302865  0.31298945     0.02100
H3455       H  0.15621492  0.61751324  0.35238838     0.15100
H3456       H  0.11273247  0.56292914  0.28380683     0.15100
C3457       C  0.07964359  0.59427442  0.30799984     0.36800
C3458       C  0.18940199  0.58557065  0.32879946     0.36700
N3459       N  0.05724203  0.59486494  0.30397950    -0.43600
N3460       N  0.21162279  0.58408074  0.33359246    -0.43600
C3461       C  0.14611591  0.44851975  0.19499680     0.00000
C3462       C  0.16016728  0.43120429  0.17851567    -0.11900
C3463       C  0.14744506  0.41124809  0.16443285     0.02300
C3464       C  0.12001862  0.40851508  0.16623384    -0.00100
C3465       C  0.10574052  0.42599132  0.18215036    -0.11800
C3466       C  0.11845592  0.44579746  0.19659195     0.02100
H3467       H  0.18142230  0.43257843  0.17726570     0.15100
H3468       H  0.08456655  0.42374462  0.18372077     0.15100
C3469       C  0.10254726  0.46277303  0.21283286     0.36800
C3470       C  0.16321400  0.39261675  0.14996608     0.36700
N3471       N  0.08971498  0.47625769  0.22589931    -0.43600
N3472       N  0.17602409  0.37761234  0.13865943    -0.43600
C3473       C  0.79336468  0.79414636  0.04020771     0.00000
C3474       C  0.81831865  0.80062013  0.03028388    -0.11900
C3475       C  0.83241721  0.82238743  0.03959763     0.02300
C3476       C  0.82154580  0.83899143  0.05927855    -0.00100
C3477       C  0.79571207  0.83340729  0.06783710    -0.11800
C3478       C  0.78174928  0.81136533  0.05867983     0.02100
H3479       H  0.82745320  0.78804745  0.01569218     0.15100
H3480       H  0.78662386  0.84487463  0.08314470     0.15100
C3481       C  0.75621929  0.80622517  0.07002860     0.36800
C3482       C  0.85891778  0.82576117  0.02986854     0.36700
N3483       N  0.73580881  0.80213114  0.07922843    -0.43600
N3484       N  0.88012712  0.82835161  0.02202195    -0.43600
C3485       C  0.70273066  0.79175869  0.95709821     0.00000
C3486       C  0.70233635  0.79513213  0.92977104    -0.11900
C3487       C  0.68858350  0.81590703  0.91810979     0.02300
C3488       C  0.67494287  0.83461011  0.93385337    -0.00100
C3489       C  0.67649429  0.83185943  0.96134164    -0.11800
C3490       C  0.68996107  0.81079658  0.97297911     0.02100
H3491       H  0.71204240  0.78088160  0.91723178     0.15100
H3492       H  0.66643615  0.84533485  0.97421693     0.15100
C3493       C  0.68987771  0.80933009  0.00135866     0.36800
C3494       C  0.68787363  0.81659229  0.88969742     0.36700
N3495       N  0.68962709  0.80817940  0.02408179    -0.43600
N3496       N  0.68732872  0.81707545  0.86695524    -0.43600
C3497       C  0.67732733  0.68928626  0.06661807     0.00000
C3498       C  0.65426819  0.70440846  0.06686247    -0.11900
C3499       C  0.63271888  0.69713555  0.08242759     0.02300
C3500       C  0.63429793  0.67467129  0.09885642    -0.00100
C3501       C  0.65749522  0.65974846  0.09882597    -0.11800
C3502       C  0.67885392  0.66675235  0.08289003     0.02100
H3503       H  0.65267346  0.72139265  0.05402633     0.15100
H3504       H  0.65909643  0.64269677  0.11156491     0.15100
C3505       C  0.70235734  0.65085091  0.08416943     0.36800
C3506       C  0.60878940  0.71221645  0.07987795     0.36700
N3507       N  0.72118973  0.63811566  0.08520729    -0.43600
N3508       N  0.58963033  0.72431509  0.07774206    -0.43600
C3509       C  0.82608440  0.69348981  0.93381492     0.00000
C3510       C  0.82000077  0.67226541  0.91723660    -0.11900
C3511       C  0.83946574  0.65995408  0.90213985     0.02300
C3512       C  0.86550246  0.66986890  0.90230477    -0.00100
C3513       C  0.87161641  0.69087411  0.91933747    -0.11800
C3514       C  0.85237799  0.70229916  0.93539415     0.02100
H3515       H  0.80003986  0.66464299  0.91678313     0.15100
H3516       H  0.89160407  0.69835500  0.92018380     0.15100
C3517       C  0.86004907  0.72329020  0.95297683     0.36800
C3518       C  0.83185781  0.63699692  0.88728605     0.36700
N3519       N  0.86623810  0.73999362  0.96719316    -0.43600
N3520       N  0.82512149  0.61820613  0.87628789    -0.43600
C3521       C  0.69860791  0.65166638  0.93360080     0.00000
C3522       C  0.67705904  0.63643206  0.94200850    -0.11900
C3523       C  0.66029997  0.62399660  0.92367720     0.02300
C3524       C  0.66513868  0.62670206  0.89646836    -0.00100
C3525       C  0.68667707  0.64193297  0.88826383    -0.11800
C3526       C  0.70340188  0.65409093  0.90633775     0.02100
H3527       H  0.67309995  0.63454619  0.96286147     0.15100
H3528       H  0.69078751  0.64393653  0.86742923     0.15100
C3529       C  0.72605117  0.66804971  0.89623749     0.36800
C3530       C  0.63899445  0.60791244  0.93334174     0.36700
N3531       N  0.74421983  0.67912812  0.88811361    -0.43600
N3532       N  0.62197100  0.59510004  0.94139403    -0.43600
C3533       C  0.80600663  0.65206082  0.05904350     0.00000
C3534       C  0.82668942  0.66563322  0.07183790    -0.11900
C3535       C  0.84115768  0.65410106  0.09221107     0.02300
C3536       C  0.83520437  0.62832141  0.10031010    -0.00100
C3537       C  0.81532657  0.61427820  0.08697794    -0.11800
C3538       C  0.80075672  0.62577599  0.06660617     0.02100
H3539       H  0.83140711  0.68572091  0.06635839     0.15100
H3540       H  0.81101475  0.59413817  0.09265807     0.15100
C3541       C  0.78054233  0.61003704  0.05422323     0.36800
C3542       C  0.86140280  0.66956385  0.10484117     0.36700
N3543       N  0.76438368  0.59728784  0.04439483    -0.43600
N3544       N  0.87770309  0.68218240  0.11458598    -0.43600
C3545       C  0.29098108  0.79221413  0.45653785     0.00000
C3546       C  0.28206625  0.80111334  0.43212857    -0.11900
C3547       C  0.29389298  0.82259918  0.41963306     0.02300
C3548       C  0.31495972  0.83649756  0.43198226    -0.00100
C3549       C  0.32283482  0.82788064  0.45723995    -0.11800
C3550       C  0.31085771  0.80643310  0.46962212     0.02100
H3551       H  0.26653759  0.79036070  0.42208667     0.15100
H3552       H  0.33952072  0.83662941  0.46711321     0.15100
C3553       C  0.31937004  0.79950927  0.49584822     0.36800
C3554       C  0.28420049  0.82857380  0.39368743     0.36700
N3555       N  0.32604347  0.79407782  0.51692378    -0.43600
N3556       N  0.27534216  0.83282284  0.37316519    -0.43600
C3557       C  0.20929020  0.79169560  0.54548783     0.00000
C3558       C  0.20826287  0.79376257  0.57294218    -0.11900
C3559       C  0.19498007  0.81454700  0.58511904     0.02300
C3560       C  0.18166729  0.83381151  0.56976939    -0.00100
C3561       C  0.18506055  0.83300740  0.54229503    -0.11800
C3562       C  0.19870574  0.81238213  0.53017846     0.02100
H3563       H  0.21702852  0.77853292  0.58505531     0.15100
H3564       H  0.17684288  0.84798106  0.52974654     0.15100
C3565       C  0.20182155  0.81329001  0.50195964     0.36800
C3566       C  0.19433135  0.81477442  0.61353807     0.36700
N3567       N  0.20442151  0.81410295  0.47937621    -0.43600
N3568       N  0.19382381  0.81498432  0.63628317    -0.43600
C3569       C  0.13662102  0.66975859  0.39991646     0.00000
C3570       C  0.15281984  0.69136624  0.39327632    -0.11900
C3571       C  0.17300736  0.70016460  0.41010632     0.02300
C3572       C  0.17780488  0.68700298  0.43406399    -0.00100
C3573       C  0.16194282  0.66531939  0.44059934    -0.11800
C3574       C  0.14138263  0.65687627  0.42418518     0.02100
H3575       H  0.14989033  0.70139067  0.37469017     0.15100
H3576       H  0.16522056  0.65522421  0.45911803     0.15100
C3577       C  0.12497291  0.63580224  0.43384036     0.36800
C3578       C  0.18908549  0.72210877  0.40184993     0.36700
N3579       N  0.11230141  0.61879412  0.44216649    -0.43600
N3580       N  0.20197181  0.73969255  0.39519845    -0.43600
C3581       C  0.36964234  0.67049147  0.59777262     0.00000
C3582       C  0.37560259  0.69037468  0.57946267    -0.11900
C3583       C  0.35597847  0.70152254  0.56352795     0.02300
C3584       C  0.32957359  0.69311617  0.56606717    -0.00100
C3585       C  0.32364075  0.67338917  0.58450404    -0.11800
C3586       C  0.34332841  0.66194128  0.60010092     0.02100
H3587       H  0.39571623  0.69734215  0.57773923     0.15100
H3588       H  0.30350475  0.66655918  0.58648447     0.15100
C3589       C  0.33559599  0.64219961  0.61893459     0.36800
C3590       C  0.36334728  0.72224391  0.54553319     0.36700
N3591       N  0.32870625  0.62639901  0.63379356    -0.43600
N3592       N  0.36932308  0.73889065  0.53118527    -0.43600
C3593       C  0.19413032  0.65389838  0.56172706     0.00000
C3594       C  0.19372708  0.62626928  0.56168249    -0.11900
C3595       C  0.17767364  0.61235537  0.57919041     0.02300
C3596       C  0.16162688  0.62610585  0.59714710    -0.00100
C3597       C  0.15993925  0.65349781  0.59539780    -0.11800
C3598       C  0.17606626  0.66753935  0.57804840     0.02100
H3599       H  0.20668992  0.61547204  0.54867076     0.15100
H3600       H  0.14692057  0.66403679  0.60850398     0.15100
C3601       C  0.17363281  0.69588881  0.57766244     0.36800
C3602       C  0.17792361  0.58395913  0.57829595     0.36700
N3603       N  0.17164150  0.71859008  0.57743669    -0.43600
N3604       N  0.17804096  0.56120905  0.57716953    -0.43600
C3605       C  0.30645037  0.65087522  0.44149288     0.00000
C3606       C  0.30461494  0.66058724  0.41579119    -0.11900
C3607       C  0.31903799  0.64927210  0.39543772     0.02300
C3608       C  0.33649717  0.62840031  0.40083230    -0.00100
C3609       C  0.33862352  0.61874962  0.42661393    -0.11800
C3610       C  0.32345627  0.62965378  0.44695261     0.02100
H3611       H  0.29165768  0.67702547  0.41158675     0.15100
H3612       H  0.35149255  0.60221644  0.43065289     0.15100
C3613       C  0.32578806  0.61899773  0.47314654     0.36800
C3614       C  0.31559764  0.65942757  0.36912320     0.36700
N3615       N  0.32762135  0.61033715  0.49411223    -0.43600
N3616       N  0.31276036  0.66747014  0.34802571    -0.43600
loop_ 
_geom_bond_atom_site_label_1 
_geom_bond_atom_site_label_2 
_geom_bond_distance 
_geom_bond_site_symmetry_2 
_ccdc_geom_bond_type 
O1           C17   1.276       .  A
O1           Zn7   2.009       .  S
C2           O18   1.274       .  A
C2           O15   1.277       .  A
C2         C3584   1.488       .  S
O3           C16   1.281       .  A
O3          Cd10   2.101       .  S
O4           C22   1.274       .  A
O4          Cd13   2.045       .  S
O5           C19   1.278       .  A
O5           Cd9   2.070       .  S
O6           C17   1.275       .  A
O6           Cd9   2.060       .  S
Zn7          O18   2.024       .  S
Zn7          O20   1.989       .  S
Zn7          O12   1.899       .  S
O8           C19   1.279       .  A
O8          Cd13   2.074       .  S
Cd9          O11   2.099       .  S
Cd9          O12   1.980       .  S
Cd10         O14   2.073       .  S
Cd10         O23   2.092       .  S
Cd10         O12   1.979       .  S
O11          C21   1.279       .  A
O12         Cd13   1.961       .  S
Cd13         O15   2.084       .  S
O14          C21   1.276       .  A
C16          O20   1.274       .  A
C16        C3605   1.470       .  S
C17        C3545   1.476       .  S
C19        C3557   1.487       .  S
C21        C3572   1.490       .  S
C22          O23   1.281       .  A
C22        C3593   1.485       .  S
O24          C40   1.271       .  A
O24         Zn30   2.002   1_556  S
C25          O41   1.275       .  A
C25          O38   1.276       .  A
C25        C3473   1.493       .  S
O26          C39   1.282       .  A
O26         Cd33   2.105       .  S
O27          C45   1.279       .  A
O27         Cd36   2.087       .  S
O28          C42   1.281       .  A
O28         Cd32   2.085       .  S
O29          C40   1.277       .  A
O29         Cd32   2.085       .  S
Zn30         O41   2.006       .  S
Zn30         O43   1.976       .  S
Zn30         O35   1.898   1_554  S
O31          C42   1.274       .  A
O31         Cd36   2.054   1_556  S
Cd32         O34   2.043       .  S
Cd32         O35   1.963       .  S
Cd33         O37   2.116   1_554  S
Cd33         O46   2.064       .  S
Cd33         O35   1.986   1_554  S
O34          C44   1.274       .  A
O35         Cd36   1.977   1_556  S
Cd36         O38   2.079       .  S
O37          C44   1.283       .  A
C39          O43   1.273       .  A
C39        C3533   1.494       .  S
C40        C3509   1.480       .  S
C42        C3485   1.491       .  S
C44        C3521   1.485       .  S
C45          O46   1.275       .  A
C45        C3497   1.483       .  S
O47          C63   1.274       .  A
O47         Zn53   2.021       .  S
C48          O64   1.276       .  A
C48          O61   1.275       .  A
C48        C3416   1.473       .  S
O49          C62   1.281       .  A
O49         Cd56   2.097       .  S
O50          C68   1.277       .  A
O50         Cd59   2.088       .  S
O51          C65   1.278       .  A
O51         Cd55   2.075       .  S
O52          C63   1.276       .  A
O52         Cd55   2.086       .  S
Zn53         O64   2.013       .  S
Zn53         O66   1.987       .  S
Zn53         O58   1.897       .  S
O54          C65   1.277       .  A
O54         Cd59   2.058       .  S
Cd55         O57   2.045       .  S
Cd55         O58   1.963       .  S
Cd56         O60   2.093       .  S
Cd56         O69   2.068       .  S
Cd56         O58   1.973       .  S
O57          C67   1.273       .  A
O58         Cd59   1.976       .  S
Cd59         O61   2.062       .  S
O60          C67   1.282       .  A
C62          O66   1.274       .  A
C62        C3461   1.489       .  S
C63        C3428   1.487       .  S
C65        C3404   1.481       .  S
C67        C3452   1.482       .  S
C68          O69   1.274       .  A
C68        C3440   1.482       .  S
O70          C86   1.273       .  A
O70         Zn76   2.004       .  S
C71          O87   1.277       .  A
C71          O84   1.275       .  A
C71        C3332   1.489       .  S
O72          C85   1.280       .  A
O72         Cd79   2.091       .  S
O73          C91   1.278       .  A
O73         Cd82   2.081       .  S
O74          C88   1.280       .  A
O74         Cd78   2.086       .  S
O75          C86   1.278       .  A
O75         Cd78   2.087       .  S
Zn76         O87   2.011       .  S
Zn76         O89   2.001       .  S
Zn76         O81   1.899       .  S
O77          C88   1.274       .  A
O77         Cd82   2.060       .  S
Cd78         O80   2.055       .  S
Cd78         O81   1.966       .  S
Cd79         O83   2.094       .  S
Cd79         O92   2.057       .  S
Cd79         O81   1.978       .  S
O80          C90   1.275       .  A
O81         Cd82   1.976       .  S
Cd82         O84   2.065       .  S
O83          C90   1.280       .  A
C85          O89   1.275       .  A
C85        C3392   1.494       .  S
C86        C3356   1.489       .  S
C88        C3344   1.490       .  S
C90        C3377   1.482       .  S
C91          O92   1.274       .  A
C91        C3365   1.481       .  S
O93         C109   1.273       .  A
O93         Zn99   2.023       .  S
C94         O110   1.276       .  A
C94         O107   1.278       .  A
C94        C3257   1.492       .  S
O95         C108   1.281       .  A
O95        Cd102   2.079       .  S
O96         C114   1.279       .  A
O96        Cd105   2.100       .  S
O97         C111   1.278       .  A
O97        Cd101   2.069       .  S
O98         C109   1.277       .  A
O98        Cd101   2.090       .  S
Zn99        O110   2.000       .  S
Zn99        O112   1.984       .  S
Zn99        O104   1.896       .  S
O100        C111   1.274       .  A
O100       Cd105   2.044       .  S
Cd101       O103   2.049       .  S
Cd101       O104   1.958       .  S
Cd102       O106   2.090       .  S
Cd102       O115   2.069       .  S
Cd102       O104   1.969       .  S
O103        C113   1.274       .  A
O104       Cd105   1.976       .  S
Cd105       O107   2.084       .  S
O106        C113   1.281       .  A
C108        O112   1.272       .  A
C108       C3308   1.487       .  S
C109       C3281   1.485       .  S
C111       C3269   1.472       .  S
C113       C3320   1.483       .  S
C114        O115   1.273       .  A
C114       C3296   1.482       .  S
O116        C132   1.277       .  A
O116       Zn122   2.014       .  S
C117        O133   1.273       .  A
C117        O130   1.279       .  A
C117       C3212   1.504       .  S
O118        C131   1.282       .  A
O118       Cd125   2.100       .  S
O119        C137   1.274       .  A
O119       Cd128   2.045       .  S
O120        C134   1.277       .  A
O120       Cd124   2.073       .  S
O121        C132   1.278       .  A
O121       Cd124   2.067       .  S
Zn122       O133   2.019       .  S
Zn122       O135   1.997       .  S
Zn122       O127   1.901       .  S
O123        C134   1.280       .  A
O123       Cd128   2.081       .  S
Cd124       O126   2.107       .  S
Cd124       O127   1.982       .  S
Cd125       O129   2.065       .  S
Cd125       O138   2.091       .  S
Cd125       O127   1.978       .  S
O126        C136   1.281       .  A
O127       Cd128   1.967       .  S
Cd128       O130   2.100       .  S
O129        C136   1.273       .  A
C131        O135   1.273       .  A
C131       C3233   1.473       .  S
C132       C3185   1.481       .  S
C134       C3197   1.490       .  S
C136       C3221   1.493       .  S
C137        O138   1.282       .  A
C137       C3248   1.484       .  S
O139        C155   1.277       .  A
O139       Zn145   2.023       .  S
C140        O156   1.275       .  A
C140        O153   1.275       .  A
C140       C3149   1.496       .  S
O141        C154   1.285       .  A
O141       Cd148   2.115       .  S
O142        C160   1.273       .  A
O142       Cd151   2.044       .  S
O143        C157   1.276       .  A
O143       Cd147   2.069   1_655  S
O144        C155   1.276       .  A
O144       Cd147   2.067       .  S
Zn145       O156   2.022   1_455  S
Zn145       O158   2.000       .  S
Zn145       O150   1.898   1_455  S
O146        C157   1.278       .  A
O146       Cd151   2.065       .  S
Cd147       O149   2.092       .  S
Cd147       O150   1.981   1_455  S
Cd148       O152   2.064       .  S
Cd148       O161   2.109   1_455  S
Cd148       O150   1.978   1_455  S
O149        C159   1.279       .  A
O150       Cd151   1.957       .  S
Cd151       O153   2.080       .  S
O152        C159   1.274       .  A
C154        O158   1.276       .  A
C154       C3173   1.501       .  S
C155       C3116   1.473       .  S
C157       C3125   1.487       .  S
C159       C3137   1.486       .  S
C160        O161   1.284       .  A
C160       C3161   1.492       .  S
O162        C178   1.272       .  A
O162       Zn168   1.997       .  S
C163        O179   1.275       .  A
C163        O176   1.277       .  A
C163       C3041   1.486       .  S
O164        C177   1.282       .  A
O164       Cd171   2.102       .  S
O165        C183   1.280       .  A
O165       Cd174   2.099       .  S
O166        C180   1.280       .  A
O166       Cd170   2.072       .  S
O167        C178   1.277       .  A
O167       Cd170   2.092       .  S
Zn168       O179   1.999   1_545  S
Zn168       O181   1.957   1_545  S
Zn168       O173   1.881       .  S
O169        C180   1.275       .  A
O169       Cd174   2.060   1_545  S
Cd170       O172   2.049       .  S
Cd170       O173   1.960       .  S
Cd171       O175   2.098   1_565  S
Cd171       O184   2.062       .  S
Cd171       O173   1.975   1_565  S
O172        C182   1.274       .  A
O173       Cd174   1.976   1_545  S
Cd174       O176   2.078       .  S
O175        C182   1.283       .  A
C177        O181   1.270       .  A
C177       C3089   1.479       .  S
C178       C3065   1.497       .  S
C180       C3056   1.491       .  S
C182       C3104   1.486       .  S
C183        O184   1.275       .  A
C183       C3077   1.488       .  S
O185        C201   1.275       .  A
O185       Zn191   2.012       .  S
C186        O202   1.273       .  A
C186        O199   1.278       .  A
C186       C2993   1.488       .  S
O187        C200   1.280       .  A
O187       Cd194   2.093       .  S
O188        C206   1.276       .  A
O188       Cd197   2.061       .  S
O189        C203   1.275       .  A
O189       Cd193   2.062       .  S
O190        C201   1.276       .  A
O190       Cd193   2.076       .  S
Zn191       O202   2.017       .  S
Zn191       O204   1.996       .  S
Zn191       O196   1.910       .  S
O192        C203   1.280       .  A
O192       Cd197   2.083       .  S
Cd193       O195   2.097       .  S
Cd193       O196   1.985       .  S
Cd194       O198   2.071       .  S
Cd194       O207   2.095       .  S
Cd194       O196   1.979       .  S
O195        C205   1.279       .  A
O196       Cd197   1.970       .  S
Cd197       O199   2.092       .  S
O198        C205   1.276       .  A
C200        O204   1.275       .  A
C200       C3029   1.495       .  S
C201       C2969   1.473       .  S
C203       C2981   1.491       .  S
C205       C3005   1.494       .  S
C206        O207   1.280       .  A
C206       C3017   1.488       .  S
C208        C209   1.550       .  S
C208        C214   1.523       .  S
C208        C212   1.541       .  S
C208       C2957   1.538       .  S
C209        H216   1.082       .  S
C209        C210   1.372       .  D
C210        C211   1.543       .  S
C210       C2945   1.500       .  S
C211        C215   1.541       .  S
C211        C213   1.553       .  S
C211        H217   1.102       .  S
C212        H218   1.084       .  S
C212        C213   1.375       .  D
C213       C3008   1.513       .  S
C214        H219   1.088       .  S
C214        C215   1.349       .  D
C215       C3092   1.471       .  S
C220        C221   1.532       .  S
C220        C226   1.528       .  S
C220        C224   1.550       .  S
C220       C2933   1.529       .  S
C221        H228   1.087       .  S
C221        C222   1.358       .  D
C222        C223   1.538       .  S
C222       C3068   1.481       .  S
C223        C227   1.539       .  S
C223        C225   1.551       .  S
C223        H229   1.109       .  S
C224        H230   1.078       .  S
C224        C225   1.376       .  D
C225       C2924   1.503       .  S
C226        H231   1.087       .  S
C226        C227   1.355       .  D
C227       C3164   1.480       .  S
C232        C233   1.548       .  S
C232        C238   1.531       .  S
C232        C236   1.542       .  S
C232       C2909   1.539       .  S
C233        H240   1.081       .  S
C233        C234   1.370       .  D
C234        C235   1.548       .  S
C234       C2885   1.502       .  S
C235        C239   1.538       .  S
C235        C237   1.544       .  S
C235        H241   1.109       .  S
C236        H242   1.085       .  S
C236        C237   1.370       .  D
C237       C2897   1.489       .  S
C238        H243   1.087       .  S
C238        C239   1.356       .  D
C239       C3020   1.488       .  S
C244        C245   1.542       .  S
C244        C250   1.534       .  S
C244        C248   1.530       .  S
C244       C2876   1.534       .  S
C245        H252   1.078       .  S
C245        C246   1.370       .  D
C246        C247   1.550       .  S
C246       C2864   1.499       .  S
C247        C251   1.532       .  S
C247        C249   1.559       .  S
C247        H253   1.109       .  S
C248        H254   1.083       .  S
C248        C249   1.369       .  D
C249       C3140   1.507       .  S
C250        H255   1.087       .  S
C250        C251   1.356       .  D
C251       C3317   1.481       .  S
C256        C257   1.532       .  S
C256        C262   1.529       .  S
C256        C260   1.550       .  S
C256       C2849   1.534       .  S
C257        H264   1.086       .  S
C257        C258   1.363       .  D
C258        C259   1.551       .  S
C258       C3293   1.487       .  S
C259        C263   1.544       .  S
C259        C261   1.543       .  S
C259        H265   1.106       .  S
C260        H266   1.081       .  S
C260        C261   1.372       .  D
C261       C2840   1.498       .  S
C262        H267   1.085       .  S
C262        C263   1.358       .  D
C263       C2825   1.496       .  S
C268        C269   1.545       .  S
C268        C274   1.530       .  S
C268        C272   1.534       .  S
C268       C3560   1.537       .  S
C269        H276   1.081       .  S
C269        C270   1.368       .  D
C270        C271   1.541       .  S
C270       C2813   1.481       .  S
C271        C275   1.542       .  S
C271        C273   1.546       .  S
C271        H277   1.110       .  S
C272        H278   1.086       .  S
C272        C273   1.365       .  D
C273       C2789   1.488       .  S
C274        H279   1.087       .  S
C274        C275   1.361       .  D
C275       C2804   1.489       .  S
O280        C296   1.274       .  A
O280       Zn286   2.021   1_455  S
C281        O297   1.276       .  A
C281        O294   1.274       .  A
C281       C2948   1.487       .  S
O282        C295   1.278       .  A
O282       Cd289   2.098       .  S
O283        C301   1.274       .  A
O283       Cd292   2.061       .  S
O284        C298   1.275       .  A
O284       Cd288   2.071   1_565  S
O285        C296   1.274       .  A
O285       Cd288   2.069       .  S
Zn286       O297   2.028   1_545  S
Zn286       O299   1.989       .  S
Zn286       O291   1.937   1_655  S
O287        C298   1.275       .  A
O287       Cd292   2.070   1_455  S
Cd288       O290   2.054       .  S
Cd288       O291   1.997       .  S
Cd289       O293   2.095   1_655  S
Cd289       O302   2.090       .  S
Cd289       O291   2.019   1_655  S
O290        C300   1.273       .  A
O291       Cd292   1.999   1_445  S
Cd292       O294   2.075       .  S
O293        C300   1.278       .  A
C295        O299   1.270       .  A
C295       C2921   1.486       .  S
C296       C2861   1.473       .  S
C298       C2816   1.480       .  S
C300       C2837   1.490       .  S
C301        O302   1.277   1_565  A
C301       C2900   1.479       .  S
O303        C319   1.275       .  A
O303       Zn309   2.017       .  S
C304        O320   1.278       .  A
C304        O317   1.277       .  A
C304       C2729   1.480       .  S
O305        C318   1.281       .  A
O305       Cd312   2.087       .  S
O306        C324   1.279       .  A
O306       Cd315   2.092       .  S
O307        C321   1.278       .  A
O307       Cd311   2.067       .  S
O308        C319   1.277       .  A
O308       Cd311   2.089       .  S
Zn309       O320   2.029       .  S
Zn309       O322   1.999       .  S
Zn309       O314   1.898       .  S
O310        C321   1.275       .  A
O310       Cd315   2.055       .  S
Cd311       O313   2.059       .  S
Cd311       O314   1.966       .  S
Cd312       O316   2.096       .  S
Cd312       O325   2.064       .  S
Cd312       O314   1.973       .  S
O313        C323   1.275       .  A
O314       Cd315   1.978       .  S
Cd315       O317   2.078       .  S
O316        C323   1.281       .  A
C318        O322   1.274       .  A
C318       C2765   1.493       .  S
C319       C2741   1.489       .  S
C321       C2936   1.483       .  S
C323       C2777   1.485       .  S
C324        O325   1.275       .  A
C324       C2753   1.489       .  S
O326        C342   1.271       .  A
O326       Zn332   2.012   1_455  S
C327        O343   1.275       .  A
C327        O340   1.278       .  A
C327       C2681   1.477       .  S
O328        C341   1.286       .  A
O328       Cd335   2.127       .  S
O329        C347   1.281       .  A
O329       Cd338   2.107       .  S
O330        C344   1.277       .  A
O330       Cd334   2.058       .  S
O331        C342   1.275       .  A
O331       Cd334   2.083       .  S
Zn332       O343   2.006       .  S
Zn332       O345   1.965       .  S
Zn332       O337   1.893       .  S
O333        C344   1.277       .  A
O333       Cd338   2.075   1_455  S
Cd334       O336   2.027       .  S
Cd334       O337   1.956   1_455  S
Cd335       O339   2.122   1_655  S
Cd335       O348   2.078       .  S
Cd335       O337   1.983       .  S
O336        C346   1.272       .  A
O337       Cd338   1.986       .  S
Cd338       O340   2.070       .  S
O339        C346   1.285       .  A
C341        O345   1.271       .  A
C341       C2720   1.491       .  S
C342       C2705   1.496       .  S
C344       C2696   1.484       .  S
C346       C2801   1.481       .  S
C347        O348   1.277       .  A
C347       C2888   1.492       .  S
C349        C350   1.541       .  S
C349        C355   1.530       .  S
C349        C353   1.544       .  S
C349       C2669   1.537       .  S
C350        H357   1.083       .  S
C350        C351   1.358       .  D
C351        C352   1.544       .  S
C351       C2708   1.481       .  S
C352        C356   1.537       .  S
C352        C354   1.549       .  S
C352        H358   1.108       .  S
C353        H359   1.085       .  S
C353        C354   1.376       .  D
C354       C2657   1.501       .  S
C355        H360   1.087       .  S
C355        C356   1.358       .  D
C356       C3596   1.480       .  S
C361        C362   1.542       .  S
C361        C367   1.530       .  S
C361        C365   1.539       .  S
C361       C3272   1.531       .  S
C362        H369   1.081       .  S
C362        C363   1.365       .  D
C363        C364   1.546       .  S
C363       C3437   1.494       .  S
C364        C368   1.543       .  S
C364        C366   1.550       .  S
C364        H370   1.107       .  S
C365        H371   1.083       .  S
C365        C366   1.369       .  D
C366       C2645   1.500       .  S
C367        H372   1.087       .  S
C367        C368   1.356       .  D
C368       C3176   1.493       .  S
C373        C374   1.552       .  S
C373        C379   1.531       .  S
C373        C377   1.535       .  S
C373       C2984   1.536       .  S
C374        H381   1.082       .  S
C374        C375   1.373       .  D
C375        C376   1.542       .  S
C375       C2633   1.488       .  S
C376        C380   1.539       .  S
C376        C378   1.545       .  S
C376        H382   1.111       .  S
C377        H383   1.086       .  S
C377        C378   1.363       .  D
C378       C2621   1.488       .  S
C379        H384   1.087       .  S
C379        C380   1.356       .  D
C380       C2717   1.480       .  S
C385        C386   1.550       .  S
C385        C391   1.535       .  S
C385        C389   1.533       .  S
C385       C3200   1.539       .  S
C386        H393   1.080       .  S
C386        C387   1.375       .  D
C387        C388   1.544       .  S
C387       C2612   1.498       .  S
C388        C392   1.537       .  S
C388        C390   1.543       .  S
C388        H394   1.110       .  S
C389        H395   1.086       .  S
C389        C390   1.362       .  D
C390       C3152   1.482       .  S
C391        H396   1.087       .  S
C391        C392   1.360       .  D
C392       C2780   1.487       .  S
C397        C398   1.544       .  S
C397        C403   1.525       .  S
C397        C401   1.542       .  S
C397       C2597   1.534       .  S
C398        H405   1.081       .  S
C398        C399   1.369       .  D
C399        C400   1.547       .  S
C399       C2756   1.505       .  S
C400        C404   1.540       .  S
C400        C402   1.547       .  S
C400        H406   1.099       .  S
C401        H407   1.084       .  S
C401        C402   1.374       .  D
C402       C2585   1.507       .  S
C403        H408   1.088       .  S
C403        C404   1.351       .  D
C404       C2573   1.471       .  S
C409        C410   1.542       .  S
C409        C415   1.528       .  S
C409        C413   1.547       .  S
C409       C2561   1.538       .  S
C410        H417   1.085       .  S
C410        C411   1.366       .  D
C411        C412   1.542       .  S
C411       C2549   1.487       .  S
C412        C416   1.537       .  S
C412        C414   1.551       .  S
C412        H418   1.108       .  S
C413        H419   1.083       .  S
C413        C414   1.375       .  D
C414       C3569   1.506       .  S
C415        H420   1.087       .  S
C415        C416   1.354       .  D
C416       C3449   1.482       .  S
O421        C437   1.276       .  A
O421       Zn427   2.036       .  S
C422        O438   1.277       .  A
C422        O435   1.273       .  A
C422       C2636   1.483       .  S
O423        C436   1.279       .  A
O423       Cd430   2.097       .  S
O424        C442   1.272       .  A
O424       Cd433   2.042       .  S
O425        C439   1.274       .  A
O425       Cd429   2.082   1_655  S
O426        C437   1.276       .  A
O426       Cd429   2.057       .  S
Zn427       O438   2.043   1_455  S
Zn427       O440   2.018       .  S
Zn427       O432   1.957   1_455  S
O428        C439   1.274       .  A
O428       Cd433   2.077       .  S
Cd429       O431   2.043       .  S
Cd429       O432   1.987   1_455  S
Cd430       O434   2.108       .  S
Cd430       O443   2.106   1_455  S
Cd430       O432   2.027   1_455  S
O431        C441   1.271       .  A
O432       Cd433   1.992       .  S
Cd433       O435   2.062       .  S
O434        C441   1.279       .  A
C436        O440   1.276       .  A
C436       C2660   1.493       .  S
C437       C2552   1.491       .  S
C439       C2609   1.481       .  S
C441       C2648   1.487       .  S
C442        O443   1.280       .  A
C442       C2588   1.482       .  S
C444        C445   1.541       .  S
C444        C450   1.531       .  S
C444        C448   1.544       .  S
C444       C2540   1.539       .  S
C445        H452   1.084       .  S
C445        C446   1.372       .  D
C446        C447   1.548       .  S
C446       C2525   1.504       .  S
C447        C451   1.540       .  S
C447        C449   1.547       .  S
C447        H453   1.108       .  S
C448        H454   1.081       .  S
C448        C449   1.366       .  D
C449       C3209   1.490       .  S
C450        H455   1.087       .  S
C450        C451   1.358       .  D
C451       C3380   1.488       .  S
C456        C457   1.534       .  S
C456        C462   1.531       .  S
C456        C460   1.544       .  S
C456       C2513   1.533       .  S
C457        H464   1.085       .  S
C457        C458   1.365       .  D
C458        C459   1.545       .  S
C458       C3500   1.490       .  S
C459        C463   1.546       .  S
C459        C461   1.539       .  S
C459        H465   1.109       .  S
C460        H466   1.081       .  S
C460        C461   1.365       .  D
C461       C2501   1.478       .  S
C462        H467   1.087       .  S
C462        C463   1.363       .  D
C463       C3236   1.499       .  S
C468        C469   1.552       .  S
C468        C474   1.529       .  S
C468        C472   1.537       .  S
C468       C2489   1.538       .  S
C469        H476   1.081       .  S
C469        C470   1.377       .  D
C470        C471   1.546       .  S
C470       C2477   1.503       .  S
C471        C475   1.538       .  S
C471        C473   1.547       .  S
C471        H477   1.106       .  S
C472        H478   1.086       .  S
C472        C473   1.366       .  D
C473       C2456   1.500       .  S
C474        H479   1.087       .  S
C474        C475   1.354       .  D
C475       C2465   1.480       .  S
C480        C481   1.549       .  S
C480        C486   1.529       .  S
C480        C484   1.541       .  S
C480       C2441   1.535       .  S
C481        H488   1.081       .  S
C481        C482   1.370       .  D
C482        C483   1.545       .  S
C482       C2417   1.501       .  S
C483        C487   1.538       .  S
C483        C485   1.538       .  S
C483        H489   1.111       .  S
C484        H490   1.085       .  S
C484        C485   1.366       .  D
C485       C2429   1.479       .  S
C486        H491   1.087       .  S
C486        C487   1.355       .  D
C487       C2408   1.477       .  S
C492        C493   1.543       .  S
C492        C498   1.528       .  S
C492        C496   1.534       .  S
C492       C2393   1.534       .  S
C493        H500   1.081       .  S
C493        C494   1.370       .  D
C494        C495   1.546       .  S
C494       C2384   1.490       .  S
C495        C499   1.543       .  S
C495        C497   1.549       .  S
C495        H501   1.110       .  S
C496        H502   1.086       .  S
C496        C497   1.366       .  D
C497       C2369   1.491       .  S
C498        H503   1.088       .  S
C498        C499   1.358       .  D
C499       C3524   1.490       .  S
C504        C505   1.532       .  S
C504        C510   1.528       .  S
C504        C508   1.548       .  S
C504       C3413   1.533       .  S
C505        H512   1.085       .  S
C505        C506   1.367       .  D
C506        C507   1.552       .  S
C506       C3368   1.492       .  S
C507        C511   1.542       .  S
C507        C509   1.541       .  S
C507        H513   1.111       .  S
C508        H514   1.082       .  S
C508        C509   1.369       .  D
C509       C2357   1.491       .  S
C510        H515   1.087       .  S
C510        C511   1.358       .  D
C511       C2345   1.490       .  S
O516        C532   1.275       .  A
O516       Zn522   2.023       .  S
C517        O533   1.274       .  A
C517        O530   1.276       .  A
C517       C2504   1.485       .  S
O518        C531   1.278       .  A
O518       Cd525   2.088       .  S
O519        C537   1.272       .  A
O519       Cd528   2.056       .  S
O520        C534   1.276       .  A
O520       Cd524   2.080   1_554  S
O521        C532   1.274       .  A
O521       Cd524   2.066       .  S
Zn522       O533   2.023   1_556  S
Zn522       O535   2.014       .  S
Zn522       O527   1.952   1_556  S
O523        C534   1.274       .  A
O523       Cd528   2.074       .  S
Cd524       O526   2.062       .  S
Cd524       O527   1.995   1_556  S
Cd525       O529   2.092       .  S
Cd525       O538   2.089   1_556  S
Cd525       O527   2.013   1_556  S
O526        C536   1.275       .  A
O527       Cd528   1.996       .  S
Cd528       O530   2.067       .  S
O529        C536   1.277       .  A
C531        O535   1.274       .  A
C531       C2381   1.488       .  S
C532       C2432   1.482       .  S
C534       C2360   1.481       .  S
C536       C2480   1.483       .  S
C537        O538   1.278       .  A
C537       C2528   1.491       .  S
O539        C555   1.273       .  A
O539       Zn545   2.014       .  S
C540        O556   1.275       .  A
C540        O553   1.278       .  A
C540       C2672   1.485       .  S
O541        C554   1.280       .  A
O541       Cd548   2.094       .  S
O542        C560   1.280       .  A
O542       Cd551   2.104       .  S
O543        C557   1.281       .  A
O543       Cd547   2.097       .  S
O544        C555   1.278       .  A
O544       Cd547   2.097       .  S
Zn545       O556   1.998       .  S
Zn545       O558   1.983       .  S
Zn545       O550   1.899       .  S
O546        C557   1.276       .  A
O546       Cd551   2.061       .  S
Cd547       O549   2.049       .  S
Cd547       O550   1.967       .  S
Cd548       O552   2.090       .  S
Cd548       O561   2.074       .  S
Cd548       O550   1.976       .  S
O549        C559   1.276       .  A
O550       Cd551   1.978       .  S
Cd551       O553   2.074       .  S
O552        C559   1.281       .  A
C554        O558   1.271       .  A
C554       C2333   1.466       .  S
C555       C2321   1.491       .  S
C557       C2309   1.488       .  S
C559       C2468   1.482       .  S
C560        O561   1.275       .  A
C560       C2420   1.494       .  S
C562        C563   1.548       .  S
C562        C568   1.526       .  S
C562        C566   1.540       .  S
C562       C2972   1.538       .  S
C563        H570   1.080       .  S
C563        C564   1.370       .  D
C564        C565   1.545       .  S
C564       C2300   1.495       .  S
C565        C569   1.536       .  S
C565        C567   1.554       .  S
C565        H571   1.109       .  S
C566        H572   1.083       .  S
C566        C567   1.373       .  D
C567       C3224   1.510       .  S
C568        H573   1.088       .  S
C568        C569   1.353       .  D
C569       C2285   1.477       .  S
C574        C575   1.550       .  S
C574        C580   1.533       .  S
C574        C578   1.530       .  S
C574       C2273   1.535       .  S
C575        H582   1.081       .  S
C575        C576   1.369       .  D
C576        C577   1.541       .  S
C576       C2264   1.491       .  S
C577        C581   1.540       .  S
C577        C579   1.548       .  S
C577        H583   1.109       .  S
C578        H584   1.086       .  S
C578        C579   1.360       .  D
C579       C2249   1.480       .  S
C580        H585   1.086       .  S
C580        C581   1.363       .  D
C581       C2768   1.493       .  S
C586        C587   1.548       .  S
C586        C592   1.525       .  S
C586        C590   1.533       .  S
C586       C2237   1.532       .  S
C587        H594   1.082       .  S
C587        C588   1.376       .  D
C588        C589   1.552       .  S
C588       C2225   1.498       .  S
C589        C593   1.541       .  S
C589        C591   1.549       .  S
C589        H595   1.109       .  S
C590        H596   1.086       .  S
C590        C591   1.362       .  D
C591       C3581   1.490       .  S
C592        H597   1.088       .  S
C592        C593   1.354       .  D
C593       C2336   1.484       .  S
C598        C599   1.546       .  S
C598        C604   1.528       .  S
C598        C602   1.539       .  S
C598       C3401   1.534       .  S
C599        H606   1.081       .  S
C599        C600   1.370       .  D
C600        C601   1.549       .  S
C600       C2201   1.497       .  S
C601        C605   1.539       .  S
C601        C603   1.541       .  S
C601        H607   1.110       .  S
C602        H608   1.086       .  S
C602        C603   1.366       .  D
C603       C2213   1.485       .  S
C604        H609   1.088       .  S
C604        C605   1.354       .  D
C605       C3608   1.477       .  S
C610        C611   1.532       .  S
C610        C616   1.529       .  S
C610        C614   1.554       .  S
C610       C3341   1.536       .  S
C611        H618   1.086       .  S
C611        C612   1.364       .  D
C612        C613   1.548       .  S
C612       C2744   1.495       .  S
C613        C617   1.536       .  S
C613        C615   1.542       .  S
C613        H619   1.110       .  S
C614        H620   1.082       .  S
C614        C615   1.375       .  D
C615       C2189   1.492       .  S
C616        H621   1.087       .  S
C616        C617   1.356       .  D
C617       C3245   1.479       .  S
C622        C623   1.545       .  S
C622        C628   1.529       .  S
C622        C626   1.540       .  S
C622       C3260   1.539       .  S
C623        H630   1.082       .  S
C623        C624   1.368       .  D
C624        C625   1.547       .  S
C624       C2324   1.494       .  S
C625        C629   1.539       .  S
C625        C627   1.541       .  S
C625        H631   1.111       .  S
C626        H632   1.085       .  S
C626        C627   1.367       .  D
C627       C2177   1.480       .  S
C628        H633   1.087       .  S
C628        C629   1.359       .  D
C629       C2165   1.483       .  S
O634        C650   1.277       .  A
O634       Zn640   2.038       .  S
C635        O651   1.278       .  A
C635        O648   1.276       .  A
C635       C2192   1.491       .  S
O636        C649   1.279       .  A
O636       Cd643   2.101       .  S
O637        C655   1.273       .  A
O637       Cd646   2.058       .  S
O638        C652   1.274       .  A
O638       Cd642   2.070       .  S
O639        C650   1.272       .  A
O639       Cd642   2.060       .  S
Zn640       O651   2.042       .  S
Zn640       O653   2.006       .  S
Zn640       O645   1.954       .  S
O641        C652   1.275       .  A
O641       Cd646   2.075       .  S
Cd642       O644   2.050       .  S
Cd642       O645   1.995       .  S
Cd643       O647   2.114       .  S
Cd643       O656   2.114       .  S
Cd643       O645   2.025       .  S
O644        C654   1.273       .  A
O645       Cd646   1.997       .  S
Cd646       O648   2.073       .  S
O647        C654   1.281       .  A
C649        O653   1.273       .  A
C649       C2261   1.486       .  S
C650       C2180   1.493       .  S
C652       C2216   1.481       .  S
C654       C2228   1.491       .  S
C655        O656   1.281       .  A
C655       C2297   1.486       .  S
O657        C673   1.275       .  A
O657       Zn663   2.007       .  S
C658        O674   1.273       .  A
C658        O671   1.277       .  A
C658       C2372   1.489       .  S
O659        C672   1.283       .  A
O659       Cd666   2.098       .  S
O660        C678   1.274       .  A
O660       Cd669   2.044       .  S
O661        C675   1.276       .  A
O661       Cd665   2.064       .  S
O662        C673   1.277       .  A
O662       Cd665   2.071       .  S
Zn663       O674   2.014       .  S
Zn663       O676   1.985       .  S
Zn663       O668   1.891       .  S
O664        C675   1.280       .  A
O664       Cd669   2.075       .  S
Cd665       O667   2.102       .  S
Cd665       O668   1.982       .  S
Cd666       O670   2.063       .  S
Cd666       O679   2.095       .  S
Cd666       O668   1.973       .  S
O667        C677   1.280       .  A
O668       Cd669   1.956       .  S
Cd669       O671   2.095       .  S
O670        C677   1.274       .  A
C672        O676   1.274       .  A
C672       C2405   1.486       .  S
C673       C2240   1.473       .  S
C675       C2129   1.491       .  S
C677       C2141   1.489       .  S
C678        O679   1.282       .  A
C678       C2156   1.487       .  S
O680        C696   1.275       .  A
O680       Zn686   2.001   1_565  S
C681        O697   1.273       .  A
C681        O694   1.274       .  A
C681       C2084   1.486       .  S
O682        C695   1.282       .  A
O682       Cd689   2.107   1_565  S
O683        C701   1.271       .  A
O683       Cd692   2.034       .  S
O684        C698   1.276       .  A
O684       Cd688   2.068   1_545  S
O685        C696   1.275       .  A
O685       Cd688   2.069       .  S
Zn686       O697   2.004       .  S
Zn686       O699   1.971   1_545  S
Zn686       O691   1.891       .  S
O687        C698   1.276       .  A
O687       Cd692   2.057       .  S
Cd688       O690   2.089       .  S
Cd688       O691   1.983   1_565  S
Cd689       O693   2.061   1_545  S
Cd689       O702   2.102       .  S
Cd689       O691   1.987       .  S
O690        C700   1.278       .  A
O691       Cd692   1.961       .  S
Cd692       O694   2.075       .  S
O693        C700   1.274       .  A
C695        O699   1.272       .  A
C695       C2108   1.491       .  S
C696       C2072   1.483       .  S
C698       C2873   1.483       .  S
C700       C2093   1.478       .  S
C701        O702   1.282       .  A
C701       C2117   1.493       .  S
O703        C719   1.274       .  A
O703       Zn709   2.018   1_556  S
C704        O720   1.277       .  A
C704        O717   1.276       .  A
C704       C2009   1.494       .  S
O705        C718   1.285       .  A
O705       Cd712   2.114       .  S
O706        C724   1.280       .  A
O706       Cd715   2.095       .  S
O707        C721   1.277       .  A
O707       Cd711   2.065       .  S
O708        C719   1.275       .  A
O708       Cd711   2.080       .  S
Zn709       O720   2.010       .  S
Zn709       O722   1.973       .  S
Zn709       O714   1.892   1_554  S
O710        C721   1.277       .  A
O710       Cd715   2.059   1_556  S
Cd711       O713   2.028       .  S
Cd711       O714   1.955       .  S
Cd712       O716   2.117   1_554  S
Cd712       O725   2.080       .  S
Cd712       O714   1.978   1_554  S
O713        C723   1.271       .  A
O714       Cd715   1.977   1_556  S
Cd715       O717   2.075       .  S
O716        C723   1.284       .  A
C718        O722   1.271       .  A
C718       C2057   1.489       .  S
C719       C2033   1.487       .  S
C721       C2444   1.485       .  S
C723       C2045   1.485       .  S
C724        O725   1.277       .  A
C724       C2024   1.492       .  S
C726        C727   1.540       .  S
C726        C732   1.533       .  S
C726        C730   1.543       .  S
C726       C2000   1.537       .  S
C727        H734   1.085       .  S
C727        C728   1.370       .  D
C728        C729   1.544       .  S
C728       C1988   1.495       .  S
C729        C733   1.539       .  S
C729        C731   1.546       .  S
C729        H735   1.109       .  S
C730        H736   1.081       .  S
C730        C731   1.368       .  D
C731       C2144   1.497       .  S
C732        H737   1.087       .  S
C732        C733   1.357       .  D
C733       C2048   1.486       .  S
C738        C739   1.534       .  S
C738        C744   1.528       .  S
C738        C742   1.552       .  S
C738       C3488   1.536       .  S
C739        H746   1.086       .  S
C739        C740   1.361       .  D
C740        C741   1.545       .  S
C740       C1961   1.484       .  S
C741        C745   1.536       .  S
C741        C743   1.548       .  S
C741        H747   1.109       .  S
C742        H748   1.081       .  S
C742        C743   1.376       .  D
C743       C1973   1.501       .  S
C744        H749   1.087       .  S
C744        C745   1.356       .  D
C745       C2153   1.478       .  S
C750        C751   1.537       .  S
C750        C756   1.530       .  S
C750        C754   1.550       .  S
C750       C1949   1.537       .  S
C751        H758   1.086       .  S
C751        C752   1.370       .  D
C752        C753   1.549       .  S
C752       C2021   1.505       .  S
C753        C757   1.536       .  S
C753        C755   1.544       .  S
C753        H759   1.108       .  S
C754        H760   1.081       .  S
C754        C755   1.373       .  D
C755       C1940   1.494       .  S
C756        H761   1.087       .  S
C756        C757   1.353       .  D
C757       C2105   1.480       .  S
C762        C763   1.547       .  S
C762        C768   1.539       .  S
C762        C766   1.535       .  S
C762       C1925   1.537       .  S
C763        H770   1.079       .  S
C763        C764   1.370       .  D
C764        C765   1.539       .  S
C764       C1913   1.488       .  S
C765        C769   1.536       .  S
C765        C767   1.541       .  S
C765        H771   1.109       .  S
C766        H772   1.086       .  S
C766        C767   1.365       .  D
C767       C2081   1.490       .  S
C768        H773   1.087       .  S
C768        C769   1.360       .  D
C769       C3389   1.486       .  S
C774        C775   1.546       .  S
C774        C780   1.530       .  S
C774        C778   1.536       .  S
C774       C1904   1.534       .  S
C775        H782   1.086       .  S
C775        C776   1.368       .  D
C776        C777   1.541       .  S
C776       C1889   1.490       .  S
C777        C781   1.541       .  S
C777        C779   1.544       .  S
C777        H783   1.110       .  S
C778        H784   1.081       .  S
C778        C779   1.365       .  D
C779       C1877   1.484       .  S
C780        H785   1.086       .  S
C780        C781   1.358       .  D
C781       C1865   1.488       .  S
C786        C787   1.532       .  S
C786        C792   1.530       .  S
C786        C790   1.543       .  S
C786       C3053   1.531       .  S
C787        H794   1.086       .  S
C787        C788   1.364       .  D
C788        C789   1.547       .  S
C788       C3353   1.483       .  S
C789        C793   1.536       .  S
C789        C791   1.550       .  S
C789        H795   1.109       .  S
C790        H796   1.081       .  S
C790        C791   1.370       .  D
C791       C1853   1.495       .  S
C792        H797   1.087       .  S
C792        C793   1.356       .  D
C793       C1844   1.484       .  S
O798        C814   1.275       .  A
O798       Zn804   2.026   1_565  S
C799        O815   1.276       .  A
C799        O812   1.274       .  A
C799       C1892   1.491       .  S
O800        C813   1.278       .  A
O800       Cd807   2.096   1_556  S
O801        C819   1.271       .  A
O801       Cd810   2.044       .  S
O802        C816   1.274       .  A
O802       Cd806   2.076       .  S
O803        C814   1.276       .  A
O803       Cd806   2.061   1_566  S
Zn804       O815   2.020       .  S
Zn804       O817   2.015   1_545  S
Zn804       O809   1.946       .  S
O805        C816   1.275       .  A
O805       Cd810   2.070       .  S
Cd806       O808   2.063   1_545  S
Cd806       O809   1.996   1_554  S
Cd807       O811   2.098       .  S
Cd807       O820   2.099   1_565  S
Cd807       O809   2.018   1_564  S
O808        C818   1.274       .  A
O809       Cd810   1.996   1_556  S
Cd810       O812   2.073   1_554  S
O811        C818   1.278       .  A
C813        O817   1.274       .  A
C813       C1976   1.493       .  S
C814       C1985   1.484       .  S
C816       C1916   1.483       .  S
C818       C1937   1.482       .  S
C819        O820   1.280       .  A
C819       C1856   1.491       .  S
O821        C837   1.278       .  A
O821       Zn827   2.024       .  S
C822        O838   1.276       .  A
C822        O835   1.275       .  A
C822       C1796   1.504       .  S
O823        C836   1.282       .  A
O823       Cd830   2.098       .  S
O824        C842   1.275       .  A
O824       Cd833   2.044       .  S
O825        C839   1.278       .  A
O825       Cd829   2.070   1_455  S
O826        C837   1.277       .  A
O826       Cd829   2.072       .  S
Zn827       O838   2.035   1_655  S
Zn827       O840   1.991       .  S
Zn827       O832   1.900       .  S
O828        C839   1.279       .  A
O828       Cd833   2.081       .  S
Cd829       O831   2.102       .  S
Cd829       O832   1.981       .  S
Cd830       O834   2.064       .  S
Cd830       O843   2.096   1_655  S
Cd830       O832   1.980       .  S
O831        C841   1.279       .  A
O832       Cd833   1.964   1_655  S
Cd833       O835   2.084       .  S
O834        C841   1.273       .  A
C836        O840   1.274       .  A
C836       C1817   1.495       .  S
C837       C2960   1.480       .  S
C839       C2564   1.490       .  S
C841       C1805   1.479       .  S
C842        O843   1.281       .  A
C842       C1829   1.484       .  S
O844        C860   1.275       .  A
O844       Zn850   2.004       .  S
C845        O861   1.272       .  A
C845        O858   1.277       .  A
C845       C1769   1.500       .  S
O846        C859   1.283       .  A
O846       Cd853   2.110       .  S
O847        C865   1.275       .  A
O847       Cd856   2.047       .  S
O848        C862   1.277       .  A
O848       Cd852   2.067   1_554  S
O849        C860   1.277       .  A
O849       Cd852   2.073       .  S
Zn850       O861   2.010   1_556  S
Zn850       O863   1.982       .  S
Zn850       O855   1.889       .  S
O851        C862   1.279       .  A
O851       Cd856   2.083       .  S
Cd852       O854   2.095       .  S
Cd852       O855   1.978       .  S
Cd853       O857   2.066       .  S
Cd853       O866   2.095   1_556  S
Cd853       O855   1.979       .  S
O854        C864   1.279       .  A
O855       Cd856   1.967   1_556  S
Cd856       O858   2.088       .  S
O857        C864   1.274       .  A
C859        O863   1.273       .  A
C859       C1781   1.497       .  S
C860       C1757   1.474       .  S
C862       C2537   1.480       .  S
C864       C1880   1.481       .  S
C865        O866   1.282       .  A
C865       C1841   1.478       .  S
O867        C883   1.275       .  A
O867       Zn873   1.992       .  S
C868        O884   1.272       .  A
C868        O881   1.276       .  A
C868       C2792   1.490       .  S
O869        C882   1.284       .  A
O869       Cd876   2.111       .  S
O870        C888   1.276       .  A
O870       Cd879   2.048       .  S
O871        C885   1.277   1_545  A
O871       Cd875   2.062       .  S
O872        C883   1.275       .  A
O872       Cd875   2.065       .  S
Zn873       O884   2.012   1_545  S
Zn873       O886   1.964       .  S
Zn873       O878   1.889       .  S
O874        C885   1.279       .  A
O874       Cd879   2.081       .  S
Cd875       O877   2.091       .  S
Cd875       O878   1.980       .  S
Cd876       O880   2.078       .  S
Cd876       O889   2.102   1_545  S
Cd876       O878   1.977       .  S
O877        C887   1.279       .  A
O878       Cd879   1.958   1_545  S
Cd879       O881   2.089       .  S
O880        C887   1.277       .  A
C882        O886   1.270       .  A
C882       C2828   1.490       .  S
C883       C1721   1.486       .  S
C885       C1997   1.485       .  S
C887       C1733   1.485       .  S
C888        O889   1.282       .  A
C888       C1748   1.492       .  S
C890        C891   1.552       .  S
C890        C896   1.529       .  S
C890        C894   1.542       .  S
C890       C1709   1.540       .  S
C891        H898   1.080       .  S
C891        C892   1.369       .  D
C892        C893   1.536       .  S
C892       C1697   1.487       .  S
C893        C897   1.529       .  S
C893        C895   1.542       .  S
C893        H899   1.110       .  S
C894        H900   1.086       .  S
C894        C895   1.370       .  D
C895       C1736   1.495       .  S
C896        H901   1.087       .  S
C896        C897   1.356       .  D
C897       C1685   1.472       .  S
C902        C903   1.543       .  S
C902        C908   1.531       .  S
C902        C906   1.545       .  S
C902       C2069   1.536       .  S
C903        H910   1.084       .  S
C903        C904   1.370       .  D
C904        C905   1.542       .  S
C904       C1676   1.488       .  S
C905        C909   1.535       .  S
C905        C907   1.542       .  S
C905        H911   1.111       .  S
C906        H912   1.083       .  S
C906        C907   1.363       .  D
C907       C1793   1.488       .  S
C908        H913   1.087       .  S
C908        C909   1.357       .  D
C909       C2060   1.477       .  S
C914        C915   1.552       .  S
C914        C920   1.532       .  S
C914        C918   1.537       .  S
C914       C3128   1.535       .  S
C915        H922   1.081       .  S
C915        C916   1.372       .  D
C916        C917   1.540       .  S
C916       C1664   1.489       .  S
C917        C921   1.537       .  S
C917        C919   1.539       .  S
C917        H923   1.111       .  S
C918        H924   1.086       .  S
C918        C919   1.363       .  D
C919       C1772   1.482       .  S
C920        H925   1.087       .  S
C920        C921   1.357       .  D
C921       C3101   1.481       .  S
C926        C927   1.544       .  S
C926        C932   1.528       .  S
C926        C930   1.543       .  S
C926       C3476   1.539       .  S
C927        H934   1.082       .  S
C927        C928   1.370       .  D
C928        C929   1.549       .  S
C928       C3080   1.498       .  S
C929        C933   1.541       .  S
C929        C931   1.546       .  S
C929        H935   1.107       .  S
C930        H936   1.086       .  S
C930        C931   1.371       .  D
C931       C1649   1.498       .  S
C932        H937   1.087       .  S
C932        C933   1.356       .  D
C933       C1820   1.488       .  S
C938        C939   1.533       .  S
C938        C944   1.534       .  S
C938        C942   1.548       .  S
C938       C2693   1.536       .  S
C939        H946   1.086       .  S
C939        C940   1.364       .  D
C940        C941   1.543       .  S
C940       C2036   1.488       .  S
C941        C945   1.539       .  S
C941        C943   1.550       .  S
C941        H947   1.110       .  S
C942        H948   1.080       .  S
C942        C943   1.374       .  D
C943       C1637   1.502       .  S
C944        H949   1.087       .  S
C944        C945   1.358       .  D
C945       C1745   1.479       .  S
C950        C951   1.531       .  S
C950        C956   1.532       .  S
C950        C954   1.547       .  S
C950       C1625   1.531       .  S
C951        H958   1.086       .  S
C951        C952   1.360       .  D
C952        C953   1.549       .  S
C952       C1601   1.484       .  S
C953        C957   1.539       .  S
C953        C955   1.549       .  S
C953        H959   1.107       .  S
C954        H960   1.080       .  S
C954        C955   1.374       .  D
C955       C1613   1.504       .  S
C956        H961   1.087       .  S
C956        C957   1.357       .  D
C957       C1784   1.491       .  S
O962        C978   1.277       .  A
O962       Zn968   2.045   1_554  S
C963        O979   1.276       .  A
C963        O976   1.273       .  A
C963       C1700   1.481       .  S
O964        C977   1.280       .  A
O964       Cd971   2.100   1_545  S
O965        C983   1.273       .  A
O965       Cd974   2.054   1_565  S
O966        C980   1.274       .  A
O966       Cd970   2.068   1_465  S
O967        C978   1.273       .  A
O967       Cd970   2.060       .  S
Zn968       O979   2.034   1_655  S
Zn968       O981   2.005       .  S
Zn968       O973   1.953       .  S
O969        C980   1.274       .  A
O969       Cd974   2.067   1_564  S
Cd970       O972   2.061   1_545  S
Cd970       O973   1.996   1_554  S
Cd971       O975   2.106   1_556  S
Cd971       O984   2.120       .  S
Cd971       O973   2.022   1_565  S
O972        C982   1.273       .  A
O973       Cd974   1.997   1_655  S
Cd974       O976   2.064       .  S
O975        C982   1.280       .  A
C977        O981   1.272       .  A
C977       C1616   1.495       .  S
C978       C1661   1.489       .  S
C980       C1673   1.483       .  S
C982       C1652   1.484       .  S
C983        O984   1.282   1_455  A
C983       C1640   1.491       .  S
O985       C1001   1.279       .  A
O985       Zn991   2.028       .  S
C986       O1002   1.274       .  A
C986        O999   1.275       .  A
C986       C1580   1.482       .  S
O987       C1000   1.281       .  A
O987       Cd994   2.096       .  S
O988       C1006   1.272       .  A
O988       Cd997   2.041       .  S
O989       C1003   1.279       .  A
O989       Cd993   2.084   1_554  S
O990       C1001   1.277       .  A
O990       Cd993   2.074       .  S
Zn991      O1002   2.027   1_556  S
Zn991      O1004   1.972       .  S
Zn991       O996   1.906       .  S
O992       C1003   1.275       .  A
O992       Cd997   2.049       .  S
Cd993       O995   2.108       .  S
Cd993       O996   1.990       .  S
Cd994       O998   2.067       .  S
Cd994      O1007   2.102   1_556  S
Cd994       O996   1.978       .  S
O995       C1005   1.280       .  A
O996       Cd997   1.963   1_556  S
Cd997       O999   2.082       .  S
O998       C1005   1.275       .  A
C1000      O1004   1.270       .  A
C1000      C1589   1.466       .  S
C1001      C1712   1.478       .  S
C1003      C1928   1.483       .  S
C1005      C2453   1.491       .  S
C1006      O1007   1.282       .  A
C1006      C2348   1.481       .  S
O1008      C1024   1.276       .  A
O1008     Zn1014   2.008       .  S
C1009      O1025   1.275       .  A
C1009      O1022   1.275       .  A
C1009      C2624   1.490       .  S
O1010      C1023   1.280       .  A
O1010     Cd1017   2.088       .  S
O1011      C1029   1.274       .  A
O1011     Cd1020   2.034       .  S
O1012      C1026   1.276       .  A
O1012     Cd1016   2.067       .  S
O1013      C1024   1.277       .  A
O1013     Cd1016   2.072       .  S
Zn1014     O1025   2.030       .  S
Zn1014     O1027   1.987       .  S
Zn1014     O1019   1.890       .  S
O1015      C1026   1.278       .  A
O1015     Cd1020   2.063       .  S
Cd1016     O1018   2.096       .  S
Cd1016     O1019   1.979       .  S
Cd1017     O1021   2.064       .  S
Cd1017     O1030   2.095       .  S
Cd1017     O1019   1.971       .  S
O1018      C1028   1.279       .  A
O1019     Cd1020   1.949       .  S
Cd1020     O1022   2.077       .  S
O1021      C1028   1.276       .  A
C1023      O1027   1.273       .  A
C1023      C2576   1.470       .  S
C1024      C2276   1.472       .  S
C1026      C2396   1.489       .  S
C1028      C1553   1.494       .  S
C1029      O1030   1.280       .  A
C1029      C1568   1.487       .  S
O1031      C1047   1.274       .  A
O1031     Zn1037   2.028   1_655  S
C1032      O1048   1.276       .  A
C1032      O1045   1.276       .  A
C1032      C2852   1.470       .  S
O1033      C1046   1.283       .  A
O1033     Cd1040   2.096       .  S
O1034      C1052   1.279       .  A
O1034     Cd1043   2.098       .  S
O1035      C1049   1.276       .  A
O1035     Cd1039   2.060       .  S
O1036      C1047   1.273       .  A
O1036     Cd1039   2.078       .  S
Zn1037     O1048   2.010       .  S
Zn1037     O1050   1.968       .  S
Zn1037     O1042   1.895   1_455  S
O1038      C1049   1.276       .  A
O1038     Cd1043   2.061   1_655  S
Cd1039     O1041   2.018       .  S
Cd1039     O1042   1.953       .  S
Cd1040     O1044   2.105   1_455  S
Cd1040     O1053   2.082       .  S
Cd1040     O1042   1.977   1_455  S
O1041      C1051   1.270       .  A
O1042     Cd1043   1.977   1_655  S
Cd1043     O1045   2.068       .  S
O1044      C1051   1.283       .  A
C1046      O1050   1.271       .  A
C1046      C1688   1.484       .  S
C1047      C1604   1.501       .  S
C1049      C2600   1.481       .  S
C1051      C1541   1.487       .  S
C1052      O1053   1.276       .  A
C1052      C1529   1.494       .  S
C1054      C1055   1.549       .  S
C1054      C1060   1.524       .  S
C1054      C1058   1.538       .  S
C1054      C1760   1.536       .  S
C1055      H1062   1.080       .  S
C1055      C1056   1.373       .  D
C1056      C1057   1.545       .  S
C1056      C1517   1.506       .  S
C1057      C1061   1.539       .  S
C1057      C1059   1.552       .  S
C1057      H1063   1.095       .  S
C1058      H1064   1.084       .  S
C1058      C1059   1.373       .  D
C1059      C1556   1.518       .  S
C1060      H1065   1.088       .  S
C1060      C1061   1.351       .  D
C1061      C1544   1.470       .  S
C1066      C1067   1.551       .  S
C1066      C1072   1.526       .  S
C1066      C1070   1.540       .  S
C1066      C2312   1.541       .  S
C1067      H1074   1.081       .  S
C1067      C1068   1.374       .  D
C1068      C1069   1.547       .  S
C1068      C1532   1.504       .  S
C1069      C1073   1.543       .  S
C1069      C1071   1.540       .  S
C1069      H1075   1.108       .  S
C1070      H1076   1.086       .  S
C1070      C1071   1.366       .  D
C1071      C1508   1.483       .  S
C1072      H1077   1.085       .  S
C1072      C1073   1.357       .  D
C1073      C1592   1.490       .  S
C1078      C1079   1.535       .  S
C1078      C1084   1.523       .  S
C1078      C1082   1.550       .  S
C1078      C2684   1.534       .  S
C1079      H1086   1.086       .  S
C1079      C1080   1.365       .  D
C1080      C1081   1.545       .  S
C1080      C3512   1.494       .  S
C1081      C1085   1.541       .  S
C1081      C1083   1.549       .  S
C1081      H1087   1.104       .  S
C1082      H1088   1.082       .  S
C1082      C1083   1.379       .  D
C1083      C1493   1.506       .  S
C1084      H1089   1.088       .  S
C1084      C1085   1.350       .  D
C1085      C1565   1.473       .  S
C1090      C1091   1.545       .  S
C1090      C1096   1.530       .  S
C1090      C1094   1.537       .  S
C1090      C3113   1.534       .  S
C1091      H1098   1.082       .  S
C1091      C1092   1.371       .  D
C1092      C1093   1.546       .  S
C1092      C1481   1.487       .  S
C1093      C1097   1.534       .  S
C1093      C1095   1.556       .  S
C1093      H1099   1.108       .  S
C1094      H1100   1.081       .  S
C1094      C1095   1.372       .  D
C1095      C1577   1.516       .  S
C1096      H1101   1.088       .  S
C1096      C1097   1.351       .  D
C1097      C3464   1.479       .  S
C1102      C1103   1.552       .  S
C1102      C1108   1.527       .  S
C1102      C1106   1.536       .  S
C1102      C3188   1.538       .  S
C1103      H1110   1.083       .  S
C1103      C1104   1.376       .  D
C1104      C1105   1.547       .  S
C1104      C1472   1.505       .  S
C1105      C1109   1.543       .  S
C1105      C1107   1.543       .  S
C1105      H1111   1.107       .  S
C1106      H1112   1.084       .  S
C1106      C1107   1.362       .  D
C1107      C1808   1.484       .  S
C1108      H1113   1.088       .  S
C1108      C1109   1.357       .  D
C1109      C3536   1.486       .  S
C1114      C1115   1.547       .  S
C1114      C1120   1.528       .  S
C1114      C1118   1.539       .  S
C1114      C2012   1.538       .  S
C1115      H1122   1.082       .  S
C1115      C1116   1.370       .  D
C1116      C1117   1.547       .  S
C1116      C3425   1.495       .  S
C1117      C1121   1.539       .  S
C1117      C1119   1.542       .  S
C1117      H1123   1.110       .  S
C1118      H1124   1.086       .  S
C1118      C1119   1.366       .  D
C1119      C1460   1.481       .  S
C1120      H1125   1.088       .  S
C1120      C1121   1.356       .  D
C1121      C1832   1.480       .  S
O1126      C1142   1.277       .  A
O1126     Zn1132   2.027   1_455  S
C1127      O1143   1.276       .  A
C1127      O1140   1.274       .  A
C1127      C1496   1.482       .  S
O1128      C1141   1.278       .  A
O1128     Cd1135   2.097       .  S
O1129      C1147   1.272       .  A
O1129     Cd1138   2.044       .  S
O1130      C1144   1.278       .  A
O1130     Cd1134   2.090   1_556  S
O1131      C1142   1.275       .  A
O1131     Cd1134   2.075       .  S
Zn1132     O1143   2.042   1_554  S
Zn1132     O1145   2.019       .  S
Zn1132     O1137   1.951   1_655  S
O1133      C1144   1.274       .  A
O1133     Cd1138   2.071   1_455  S
Cd1134     O1136   2.059       .  S
Cd1134     O1137   2.002       .  S
Cd1135     O1139   2.093   1_655  S
Cd1135     O1148   2.102       .  S
Cd1135     O1137   2.026   1_655  S
O1136      C1146   1.274       .  A
O1137     Cd1138   1.989   1_454  S
Cd1138     O1140   2.058       .  S
O1139      C1146   1.278       .  A
C1141      O1145   1.275       .  A
C1141      C1469   1.487       .  S
C1142      C1457   1.494       .  S
C1144      C1505   1.498       .  S
C1146      C1484   1.477       .  S
C1147      O1148   1.278   1_556  A
C1147      C1520   1.484       .  S
O1149      C1165   1.275       .  A
O1149     Zn1155   2.033       .  S
C1150      O1166   1.278       .  A
C1150      O1163   1.277       .  A
C1150      C1952   1.474       .  S
O1151      C1164   1.282       .  A
O1151     Cd1158   2.087       .  S
O1152      C1170   1.280       .  A
O1152     Cd1161   2.101       .  S
O1153      C1167   1.279       .  A
O1153     Cd1157   2.066       .  S
O1154      C1165   1.276       .  A
O1154     Cd1157   2.085       .  S
Zn1155     O1166   2.021       .  S
Zn1155     O1168   1.974       .  S
Zn1155     O1160   1.884       .  S
O1156      C1167   1.276       .  A
O1156     Cd1161   2.057       .  S
Cd1157     O1159   2.039       .  S
Cd1157     O1160   1.951       .  S
Cd1158     O1162   2.095       .  S
Cd1158     O1171   2.061       .  S
Cd1158     O1160   1.967       .  S
O1159      C1169   1.274       .  A
O1160     Cd1161   1.973       .  S
Cd1161     O1163   2.076       .  S
O1162      C1169   1.282       .  A
C1164      O1168   1.272       .  A
C1164      C1445   1.486       .  S
C1165      C1433   1.498       .  S
C1167      C2516   1.484       .  S
C1169      C2288   1.486       .  S
C1170      O1171   1.273       .  A
C1170      C2204   1.488       .  S
O1172      C1188   1.276       .  A
O1172     Zn1178   2.006       .  S
C1173      O1189   1.274       .  A
C1173      O1186   1.275       .  A
C1173      C1412   1.492       .  S
O1174      C1187   1.282       .  A
O1174     Cd1181   2.106       .  S
O1175      C1193   1.274       .  A
O1175     Cd1184   2.036       .  S
O1176      C1190   1.275       .  A
O1176     Cd1180   2.068       .  S
O1177      C1188   1.277       .  A
O1177     Cd1180   2.060       .  S
Zn1178     O1189   2.014       .  S
Zn1178     O1191   1.984       .  S
Zn1178     O1183   1.892       .  S
O1179      C1190   1.279       .  A
O1179     Cd1184   2.077       .  S
Cd1180     O1182   2.086       .  S
Cd1180     O1183   1.975       .  S
Cd1181     O1185   2.060       .  S
Cd1181     O1194   2.107       .  S
Cd1181     O1183   1.979       .  S
O1182      C1192   1.278       .  A
O1183     Cd1184   1.959       .  S
Cd1184     O1186   2.076       .  S
O1185      C1192   1.273       .  A
C1187      O1191   1.273       .  A
C1187      C1421   1.496       .  S
C1188      C1901   1.483       .  S
C1190      C2492   1.491       .  S
C1192      C2252   1.473       .  S
C1193      O1194   1.283       .  A
C1193      C2168   1.480       .  S
O1195      C1211   1.274       .  A
O1195     Zn1201   2.015   1_565  S
C1196      O1212   1.276       .  A
C1196      O1209   1.276       .  A
C1196      C1628   1.473       .  S
O1197      C1210   1.284       .  A
O1197     Cd1204   2.105       .  S
O1198      C1216   1.279       .  A
O1198     Cd1207   2.091       .  S
O1199      C1213   1.280       .  A
O1199     Cd1203   2.082       .  S
O1200      C1211   1.277       .  A
O1200     Cd1203   2.093       .  S
Zn1201     O1212   2.010       .  S
Zn1201     O1214   1.982       .  S
Zn1201     O1206   1.886       .  S
O1202      C1213   1.276   1_545  A
O1202     Cd1207   2.061       .  S
Cd1203     O1205   2.036       .  S
Cd1203     O1206   1.953   1_565  S
Cd1204     O1208   2.102   1_545  S
Cd1204     O1217   2.079       .  S
Cd1204     O1206   1.970       .  S
O1205      C1215   1.275       .  A
O1206     Cd1207   1.968       .  S
Cd1207     O1209   2.059       .  S
O1208      C1215   1.283       .  A
C1210      O1214   1.272       .  A
C1210      C1868   1.494       .  S
C1211      C1964   1.495       .  S
C1213      C2912   1.485       .  S
C1215      C1400   1.490       .  S
C1216      O1217   1.276       .  A
C1216      C1385   1.489       .  S
C1218      C1219   1.542       .  S
C1218      C1224   1.530       .  S
C1218      C1222   1.538       .  S
C1218      C1724   1.533       .  S
C1219      H1226   1.085       .  S
C1219      C1220   1.371       .  D
C1220      C1221   1.544       .  S
C1220      C1373   1.497       .  S
C1221      C1225   1.541       .  S
C1221      C1223   1.544       .  S
C1221      H1227   1.109       .  S
C1222      H1228   1.082       .  S
C1222      C1223   1.361       .  D
C1223      C1409   1.484       .  S
C1224      H1229   1.086       .  S
C1224      C1225   1.359       .  D
C1225      C3305   1.484       .  S
C1230      C1231   1.552       .  S
C1230      C1236   1.528       .  S
C1230      C1234   1.537       .  S
C1230      C2132   1.535       .  S
C1231      H1238   1.082       .  S
C1231      C1232   1.378       .  D
C1232      C1233   1.546       .  S
C1232      C1361   1.499       .  S
C1233      C1237   1.539       .  S
C1233      C1235   1.542       .  S
C1233      H1239   1.108       .  S
C1234      H1240   1.086       .  S
C1234      C1235   1.365       .  D
C1235      C2996   1.491       .  S
C1236      H1241   1.088       .  S
C1236      C1237   1.350       .  D
C1237      C1397   1.473       .  S
C1242      C1243   1.540       .  S
C1242      C1248   1.531       .  S
C1242      C1246   1.551       .  S
C1242      C2732   1.541       .  S
C1243      H1250   1.086       .  S
C1243      C1244   1.369       .  D
C1244      C1245   1.546       .  S
C1244      C1388   1.498       .  S
C1245      C1249   1.538       .  S
C1245      C1247   1.540       .  S
C1245      H1251   1.109       .  S
C1246      H1252   1.081       .  S
C1246      C1247   1.371       .  D
C1247      C1352   1.493       .  S
C1248      H1253   1.087       .  S
C1248      C1249   1.357       .  D
C1249      C1424   1.486       .  S
C1254      C1255   1.550       .  S
C1254      C1260   1.529       .  S
C1254      C1258   1.539       .  S
C1254      C3548   1.536       .  S
C1255      H1262   1.083       .  S
C1255      C1256   1.372       .  D
C1256      C1257   1.541       .  S
C1256      C1337   1.500       .  S
C1257      C1261   1.535       .  S
C1257      C1259   1.539       .  S
C1257      H1263   1.109       .  S
C1258      H1264   1.084       .  S
C1258      C1259   1.366       .  D
C1259      C2096   1.482       .  S
C1260      H1265   1.087       .  S
C1260      C1261   1.357       .  D
C1261      C1448   1.473       .  S
C1266      C1267   1.541       .  S
C1266      C1272   1.528       .  S
C1266      C1270   1.546       .  S
C1266      C3044   1.538       .  S
C1267      H1274   1.084       .  S
C1267      C1268   1.365       .  D
C1268      C1269   1.546       .  S
C1268      C1436   1.492       .  S
C1269      C1273   1.545       .  S
C1269      C1271   1.538       .  S
C1269      H1275   1.109       .  S
C1270      H1276   1.084       .  S
C1270      C1271   1.368       .  D
C1271      C1325   1.483       .  S
C1272      H1277   1.087       .  S
C1272      C1273   1.362       .  D
C1273      C3032   1.493       .  S
C1278      C1279   1.547       .  S
C1278      C1284   1.527       .  S
C1278      C1282   1.542       .  S
C1278      C3329   1.538       .  S
C1279      H1286   1.080       .  S
C1279      C1280   1.371       .  D
C1280      C1281   1.548       .  S
C1280      C3284   1.507       .  S
C1281      C1285   1.538       .  S
C1281      C1283   1.547       .  S
C1281      H1287   1.106       .  S
C1282      H1288   1.083       .  S
C1282      C1283   1.373       .  D
C1283      C1316   1.499       .  S
C1284      H1289   1.088       .  S
C1284      C1285   1.351       .  D
C1285      C2120   1.473       .  S
O1290      C1306   1.278       .  A
O1290     Zn1296   2.052       .  S
C1291      O1307   1.276       .  A
C1291      O1304   1.274       .  A
C1291      C1340   1.486       .  S
O1292      C1305   1.276   1_545  A
O1292     Cd1299   2.081       .  S
O1293      C1311   1.274       .  A
O1293     Cd1302   2.062       .  S
O1294      C1308   1.273       .  A
O1294     Cd1298   2.065       .  S
O1295      C1306   1.274       .  A
O1295     Cd1298   2.050   1_565  S
Zn1296     O1307   2.031       .  S
Zn1296     O1309   2.026       .  S
Zn1296     O1301   1.958   1_565  S
O1297      C1308   1.276       .  A
O1297     Cd1302   2.069       .  S
Cd1298     O1300   2.070       .  S
Cd1298     O1301   1.997       .  S
Cd1299     O1303   2.091       .  S
Cd1299     O1312   2.092       .  S
Cd1299     O1301   2.015       .  S
O1300      C1310   1.274       .  A
O1301     Cd1302   1.996       .  S
Cd1302     O1304   2.073   1_545  S
O1303      C1310   1.276       .  A
C1305      O1309   1.275       .  A
C1305      C1328   1.477       .  S
C1306      C1364   1.483       .  S
C1308      C1376   1.480       .  S
C1310      C1349   1.482       .  S
C1311      O1312   1.278       .  A
C1311      C1313   1.485       .  S
C1313      C1314   1.404       .  A
C1313      C1318   1.413       .  A
C1314      C1315   1.405       .  A
C1314      H1319   1.085       .  S
C1315      C1316   1.418       .  A
C1315      C1322   1.443       .  S
C1316      C1317   1.406       .  A
C1317      C1318   1.399       .  A
C1317      H1320   1.083       .  S
C1318      C1321   1.445       .  S
C1321      N1323   1.157       .  T
C1322      N1324   1.157       .  T
C1325      C1326   1.402       .  A
C1325      C1330   1.412       .  A
C1326      C1327   1.404       .  A
C1326      H1331   1.083       .  S
C1327      C1328   1.412       .  A
C1327      C1334   1.444       .  S
C1328      C1329   1.401       .  A
C1329      C1330   1.401       .  A
C1329      H1332   1.085       .  S
C1330      C1333   1.443       .  S
C1333      N1335   1.157       .  T
C1334      N1336   1.157       .  T
C1337      C1338   1.409       .  A
C1337      C1342   1.418       .  A
C1338      C1339   1.403       .  A
C1338      H1343   1.084       .  S
C1339      C1340   1.411       .  A
C1339      C1346   1.444       .  S
C1340      C1341   1.402       .  A
C1341      C1342   1.402       .  A
C1341      H1344   1.085       .  S
C1342      C1345   1.442       .  S
C1345      N1347   1.157       .  T
C1346      N1348   1.157       .  T
C1349      C1350   1.403       .  A
C1349      C1354   1.412       .  A
C1350      C1351   1.404       .  A
C1350      H1355   1.085       .  S
C1351      C1352   1.415       .  A
C1351      C1358   1.443       .  S
C1352      C1353   1.405       .  A
C1353      C1354   1.402       .  A
C1353      H1356   1.085       .  S
C1354      C1357   1.445       .  S
C1357      N1359   1.157       .  T
C1358      N1360   1.157       .  T
C1361      C1362   1.412       .  A
C1361      C1366   1.417       .  A
C1362      C1363   1.408       .  A
C1362      H1367   1.084       .  S
C1363      C1364   1.411       .  A
C1363      C1370   1.443       .  S
C1364      C1365   1.400       .  A
C1365      C1366   1.396       .  A
C1365      H1368   1.086       .  S
C1366      C1369   1.440       .  S
C1369      N1371   1.157       .  T
C1370      N1372   1.157       .  T
C1373      C1374   1.410       .  A
C1373      C1378   1.418       .  A
C1374      C1375   1.404       .  A
C1374      H1379   1.084       .  S
C1375      C1376   1.411       .  A
C1375      C1382   1.444       .  S
C1376      C1377   1.398       .  A
C1377      C1378   1.396       .  A
C1377      H1380   1.086       .  S
C1378      C1381   1.440       .  S
C1381      N1383   1.156       .  T
C1382      N1384   1.157   1_545  T
C1385      C1386   1.406       .  A
C1385      C1390   1.412       .  A
C1386      C1387   1.404       .  A
C1386      H1391   1.085       .  S
C1387      C1388   1.414       .  A
C1387      C1394   1.443       .  S
C1388      C1389   1.408       .  A
C1389      C1390   1.405       .  A
C1389      H1392   1.084       .  S
C1390      C1393   1.444       .  S
C1393      N1395   1.157       .  T
C1394      N1396   1.157       .  T
C1397      C1398   1.403       .  A
C1397      C1402   1.403       .  A
C1398      C1399   1.403       .  A
C1398      H1403   1.085       .  S
C1399      C1400   1.416       .  A
C1399      C1406   1.444       .  S
C1400      C1401   1.411       .  A
C1401      C1402   1.395       .  A
C1401      H1404   1.084       .  S
C1402      C1405   1.444       .  S
C1405      N1407   1.157       .  T
C1406      N1408   1.157       .  T
C1409      C1410   1.404       .  A
C1409      C1414   1.407       .  A
C1410      C1411   1.401       .  A
C1410      H1415   1.085       .  S
C1411      C1412   1.416       .  A
C1411      C1418   1.444       .  S
C1412      C1413   1.411       .  A
C1413      C1414   1.402       .  A
C1413      H1416   1.084       .  S
C1414      C1417   1.444       .  S
C1417      N1419   1.157       .  T
C1418      N1420   1.157       .  T
C1421      C1422   1.414       .  A
C1421      C1426   1.415       .  A
C1422      C1423   1.400       .  A
C1422      H1427   1.084       .  S
C1423      C1424   1.406       .  A
C1423      C1430   1.444       .  S
C1424      C1425   1.406       .  A
C1425      C1426   1.402       .  A
C1425      H1428   1.085       .  S
C1426      C1429   1.444       .  S
C1429      N1431   1.157       .  T
C1430      N1432   1.157       .  T
C1433      C1434   1.407       .  A
C1433      C1438   1.421       .  A
C1434      C1435   1.403       .  A
C1434      H1439   1.084       .  S
C1435      C1436   1.414       .  A
C1435      C1442   1.445       .  S
C1436      C1437   1.401       .  A
C1437      C1438   1.406       .  A
C1437      H1440   1.083       .  S
C1438      C1441   1.444       .  S
C1441      N1443   1.157       .  T
C1442      N1444   1.157       .  T
C1445      C1446   1.405       .  A
C1445      C1450   1.424       .  A
C1446      C1447   1.397       .  A
C1446      H1451   1.084       .  S
C1447      C1448   1.411       .  A
C1447      C1454   1.445       .  S
C1448      C1449   1.395       .  A
C1449      C1450   1.398       .  A
C1449      H1452   1.085       .  S
C1450      C1453   1.446       .  S
C1453      N1455   1.158       .  T
C1454      N1456   1.157       .  T
C1457      C1458   1.407       .  A
C1457      C1462   1.421       .  A
C1458      C1459   1.400       .  A
C1458      H1463   1.085       .  S
C1459      C1460   1.409       .  A
C1459      C1466   1.443       .  S
C1460      C1461   1.400       .  A
C1461      C1462   1.405       .  A
C1461      H1464   1.085       .  S
C1462      C1465   1.444       .  S
C1465      N1467   1.157       .  T
C1466      N1468   1.157       .  T
C1469      C1470   1.401       .  A
C1469      C1474   1.411       .  A
C1470      C1471   1.400       .  A
C1470      H1475   1.086       .  S
C1471      C1472   1.419       .  A
C1471      C1478   1.441       .  S
C1472      C1473   1.412       .  A
C1473      C1474   1.408       .  A
C1473      H1476   1.084       .  S
C1474      C1477   1.444       .  S
C1477      N1479   1.157       .  T
C1478      N1480   1.157       .  T
C1481      C1482   1.403       .  A
C1481      C1486   1.414       .  A
C1482      C1483   1.400       .  A
C1482      H1487   1.085       .  S
C1483      C1484   1.411       .  A
C1483      C1490   1.445       .  S
C1484      C1485   1.403       .  A
C1485      C1486   1.405       .  A
C1485      H1488   1.085       .  S
C1486      C1489   1.443       .  S
C1489      N1491   1.157       .  T
C1490      N1492   1.157       .  T
C1493      C1494   1.413       .  A
C1493      C1498   1.420       .  A
C1494      C1495   1.406       .  A
C1494      H1499   1.084       .  S
C1495      C1496   1.408       .  A
C1495      C1502   1.444       .  S
C1496      C1497   1.399       .  A
C1497      C1498   1.398       .  A
C1497      H1500   1.086       .  S
C1498      C1501   1.441       .  S
C1501      N1503   1.157       .  T
C1502      N1504   1.157   1_655  T
C1505      C1506   1.408       .  A
C1505      C1510   1.423       .  A
C1506      C1507   1.402       .  A
C1506      H1511   1.084       .  S
C1507      C1508   1.409       .  A
C1507      C1514   1.443       .  S
C1508      C1509   1.399       .  A
C1509      C1510   1.406       .  A
C1509      H1512   1.085       .  S
C1510      C1513   1.445       .  S
C1513      N1515   1.158       .  T
C1514      N1516   1.157       .  T
C1517      C1518   1.413       .  A
C1517      C1522   1.421       .  A
C1518      C1519   1.407       .  A
C1518      H1523   1.083       .  S
C1519      C1520   1.409       .  A
C1519      C1526   1.443       .  S
C1520      C1521   1.400       .  A
C1521      C1522   1.396       .  A
C1521      H1524   1.086       .  S
C1522      C1525   1.442       .  S
C1525      N1527   1.157       .  T
C1526      N1528   1.157   1_556  T
C1529      C1530   1.406       .  A
C1529      C1534   1.414       .  A
C1530      C1531   1.405       .  A
C1530      H1535   1.085       .  S
C1531      C1532   1.416       .  A
C1531      C1538   1.443       .  S
C1532      C1533   1.409       .  A
C1533      C1534   1.407       .  A
C1533      H1536   1.084       .  S
C1534      C1537   1.444       .  S
C1537      N1539   1.157       .  T
C1538      N1540   1.157       .  T
C1541      C1542   1.406       .  A
C1541      C1546   1.424       .  A
C1542      C1543   1.401       .  A
C1542      H1547   1.084       .  S
C1543      C1544   1.411       .  A
C1543      C1550   1.444       .  S
C1544      C1545   1.391       .  A
C1545      C1546   1.393       .  A
C1545      H1548   1.084       .  S
C1546      C1549   1.446       .  S
C1549      N1551   1.158       .  T
C1550      N1552   1.157       .  T
C1553      C1554   1.403       .  A
C1553      C1558   1.411       .  A
C1554      C1555   1.401       .  A
C1554      H1559   1.085       .  S
C1555      C1556   1.424       .  A
C1555      C1562   1.441       .  S
C1556      C1557   1.416       .  A
C1557      C1558   1.406       .  A
C1557      H1560   1.082       .  S
C1558      C1561   1.444       .  S
C1561      N1563   1.157       .  T
C1562      N1564   1.158       .  T
C1565      C1566   1.402       .  A
C1565      C1570   1.405       .  A
C1566      C1567   1.403       .  A
C1566      H1571   1.084       .  S
C1567      C1568   1.416       .  A
C1567      C1574   1.444       .  S
C1568      C1569   1.409       .  A
C1569      C1570   1.393       .  A
C1569      H1572   1.084       .  S
C1570      C1573   1.445       .  S
C1573      N1575   1.157       .  T
C1574      N1576   1.157       .  T
C1577      C1578   1.412       .  A
C1577      C1582   1.429       .  A
C1578      C1579   1.406       .  A
C1578      H1583   1.081       .  S
C1579      C1580   1.409       .  A
C1579      C1586   1.444       .  S
C1580      C1581   1.394       .  A
C1581      C1582   1.403       .  A
C1581      H1584   1.085       .  S
C1582      C1585   1.441       .  S
C1585      N1587   1.157       .  T
C1586      N1588   1.157       .  T
C1589      C1590   1.396       .  A
C1589      C1594   1.411       .  A
C1590      C1591   1.395       .  A
C1590      H1595   1.086       .  S
C1591      C1592   1.420       .  A
C1591      C1598   1.445       .  S
C1592      C1593   1.404       .  A
C1593      C1594   1.401       .  A
C1593      H1596   1.083       .  S
C1594      C1597   1.442       .  S
C1597      N1599   1.157       .  T
C1598      N1600   1.157       .  T
C1601      C1602   1.401       .  A
C1601      C1606   1.406       .  A
C1602      C1603   1.404       .  A
C1602      H1607   1.085       .  S
C1603      C1604   1.421       .  A
C1603      C1610   1.444       .  S
C1604      C1605   1.412       .  A
C1605      C1606   1.404       .  A
C1605      H1608   1.084       .  S
C1606      C1609   1.444       .  S
C1609      N1611   1.157       .  T
C1610      N1612   1.157       .  T
C1613      C1614   1.404       .  A
C1613      C1618   1.421       .  A
C1614      C1615   1.400       .  A
C1614      H1619   1.082       .  S
C1615      C1616   1.419       .  A
C1615      C1622   1.444       .  S
C1616      C1617   1.404       .  A
C1617      C1618   1.404       .  A
C1617      H1620   1.085       .  S
C1618      C1621   1.444       .  S
C1621      N1623   1.158       .  T
C1622      N1624   1.157       .  T
C1625      C1626   1.412       .  A
C1625      C1630   1.424       .  A
C1626      C1627   1.401       .  A
C1626      H1631   1.078       .  S
C1627      C1628   1.410       .  A
C1627      C1634   1.445       .  S
C1628      C1629   1.396       .  A
C1629      C1630   1.394       .  A
C1629      H1632   1.085       .  S
C1630      C1633   1.445       .  S
C1633      N1635   1.157       .  T
C1634      N1636   1.157   1_545  T
C1637      C1638   1.404       .  A
C1637      C1642   1.420       .  A
C1638      C1639   1.401       .  A
C1638      H1643   1.083       .  S
C1639      C1640   1.416       .  A
C1639      C1646   1.445       .  S
C1640      C1641   1.404       .  A
C1641      C1642   1.408       .  A
C1641      H1644   1.085       .  S
C1642      C1645   1.444       .  S
C1645      N1647   1.157       .  T
C1646      N1648   1.157       .  T
C1649      C1650   1.409       .  A
C1649      C1654   1.416       .  A
C1650      C1651   1.406       .  A
C1650      H1655   1.084       .  S
C1651      C1652   1.410       .  A
C1651      C1658   1.443       .  S
C1652      C1653   1.402       .  A
C1653      C1654   1.401       .  A
C1653      H1656   1.085       .  S
C1654      C1657   1.442       .  S
C1657      N1659   1.157       .  T
C1658      N1660   1.157   1_554  T
C1661      C1662   1.407       .  A
C1661      C1666   1.417       .  A
C1662      C1663   1.405       .  A
C1662      H1667   1.084       .  S
C1663      C1664   1.413       .  A
C1663      C1670   1.443       .  S
C1664      C1665   1.402       .  A
C1665      C1666   1.399       .  A
C1665      H1668   1.085       .  S
C1666      C1669   1.445       .  S
C1669      N1671   1.158       .  T
C1670      N1672   1.157       .  T
C1673      C1674   1.406       .  A
C1673      C1678   1.414       .  A
C1674      C1675   1.402       .  A
C1674      H1679   1.085       .  S
C1675      C1676   1.412       .  A
C1675      C1682   1.443       .  S
C1676      C1677   1.404       .  A
C1677      C1678   1.398       .  A
C1677      H1680   1.084       .  S
C1678      C1681   1.445       .  S
C1681      N1683   1.157       .  T
C1682      N1684   1.157       .  T
C1685      C1686   1.395       .  A
C1685      C1690   1.410       .  A
C1686      C1687   1.399       .  A
C1686      H1691   1.085       .  S
C1687      C1688   1.424       .  A
C1687      C1694   1.446       .  S
C1688      C1689   1.403       .  A
C1689      C1690   1.396       .  A
C1689      H1692   1.084       .  S
C1690      C1693   1.444       .  S
C1693      N1695   1.157       .  T
C1694      N1696   1.158       .  T
C1697      C1698   1.403       .  A
C1697      C1702   1.413       .  A
C1698      C1699   1.399       .  A
C1698      H1703   1.085       .  S
C1699      C1700   1.412       .  A
C1699      C1706   1.442       .  S
C1700      C1701   1.405       .  A
C1701      C1702   1.402       .  A
C1701      H1704   1.085       .  S
C1702      C1705   1.443       .  S
C1705      N1707   1.157       .  T
C1706      N1708   1.156       .  T
C1709      C1710   1.413       .  A
C1709      C1714   1.425       .  A
C1710      C1711   1.400       .  A
C1710      H1715   1.076       .  S
C1711      C1712   1.407       .  A
C1711      C1718   1.445       .  S
C1712      C1713   1.399       .  A
C1713      C1714   1.402       .  A
C1713      H1716   1.085       .  S
C1714      C1717   1.446       .  S
C1717      N1719   1.158       .  T
C1718      N1720   1.157   1_556  T
C1721      C1722   1.403       .  A
C1721      C1726   1.413       .  A
C1722      C1723   1.394       .  A
C1722      H1727   1.085       .  S
C1723      C1724   1.420       .  A
C1723      C1730   1.444       .  S
C1724      C1725   1.413       .  A
C1725      C1726   1.400       .  A
C1725      H1728   1.077       .  S
C1726      C1729   1.445       .  S
C1729      N1731   1.158       .  T
C1730      N1732   1.157       .  T
C1733      C1734   1.404       .  A
C1733      C1738   1.411       .  A
C1734      C1735   1.402       .  A
C1734      H1739   1.085       .  S
C1735      C1736   1.414       .  A
C1735      C1742   1.444       .  S
C1736      C1737   1.408       .  A
C1737      C1738   1.405       .  A
C1737      H1740   1.084       .  S
C1738      C1741   1.443       .  S
C1741      N1743   1.157       .  T
C1742      N1744   1.157       .  T
C1745      C1746   1.403       .  A
C1745      C1750   1.406       .  A
C1746      C1747   1.407       .  A
C1746      H1751   1.084       .  S
C1747      C1748   1.417       .  A
C1747      C1754   1.443       .  S
C1748      C1749   1.408       .  A
C1749      C1750   1.396       .  A
C1749      H1752   1.085       .  S
C1750      C1753   1.443       .  S
C1753      N1755   1.157       .  T
C1754      N1756   1.157       .  T
C1757      C1758   1.396       .  A
C1757      C1762   1.409       .  A
C1758      C1759   1.398       .  A
C1758      H1763   1.085       .  S
C1759      C1760   1.426       .  A
C1759      C1766   1.446       .  S
C1760      C1761   1.411       .  A
C1761      C1762   1.400       .  A
C1761      H1764   1.077       .  S
C1762      C1765   1.445       .  S
C1765      N1767   1.157   1_556  T
C1766      N1768   1.157       .  T
C1769      C1770   1.410       .  A
C1769      C1774   1.424       .  A
C1770      C1771   1.403       .  A
C1770      H1775   1.084       .  S
C1771      C1772   1.407       .  A
C1771      C1778   1.443       .  S
C1772      C1773   1.398       .  A
C1773      C1774   1.403       .  A
C1773      H1776   1.085       .  S
C1774      C1777   1.444       .  S
C1777      N1779   1.158       .  T
C1778      N1780   1.157       .  T
C1781      C1782   1.413       .  A
C1781      C1786   1.415       .  A
C1782      C1783   1.400       .  A
C1782      H1787   1.084       .  S
C1783      C1784   1.407       .  A
C1783      C1790   1.443       .  S
C1784      C1785   1.409       .  A
C1785      C1786   1.402       .  A
C1785      H1788   1.085       .  S
C1786      C1789   1.444       .  S
C1789      N1791   1.157       .  T
C1790      N1792   1.157       .  T
C1793      C1794   1.401       .  A
C1793      C1798   1.408       .  A
C1794      C1795   1.405       .  A
C1794      H1799   1.085       .  S
C1795      C1796   1.422       .  A
C1795      C1802   1.444       .  S
C1796      C1797   1.412       .  A
C1797      C1798   1.405       .  A
C1797      H1800   1.084       .  S
C1798      C1801   1.443       .  S
C1801      N1803   1.157       .  T
C1802      N1804   1.157       .  T
C1805      C1806   1.401       .  A
C1805      C1810   1.413       .  A
C1806      C1807   1.403       .  A
C1806      H1811   1.085       .  S
C1807      C1808   1.413       .  A
C1807      C1814   1.443       .  S
C1808      C1809   1.401       .  A
C1809      C1810   1.404       .  A
C1809      H1812   1.085       .  S
C1810      C1813   1.444       .  S
C1813      N1815   1.157       .  T
C1814      N1816   1.157       .  T
C1817      C1818   1.413       .  A
C1817      C1822   1.415       .  A
C1818      C1819   1.401       .  A
C1818      H1823   1.084       .  S
C1819      C1820   1.407       .  A
C1819      C1826   1.444       .  S
C1820      C1821   1.407       .  A
C1821      C1822   1.399       .  A
C1821      H1824   1.085       .  S
C1822      C1825   1.444       .  S
C1825      N1827   1.157       .  T
C1826      N1828   1.157       .  T
C1829      C1830   1.406       .  A
C1829      C1834   1.415       .  A
C1830      C1831   1.394       .  A
C1830      H1835   1.085       .  S
C1831      C1832   1.410       .  A
C1831      C1838   1.445       .  S
C1832      C1833   1.402       .  A
C1833      C1834   1.406       .  A
C1833      H1836   1.082       .  S
C1834      C1837   1.443       .  S
C1837      N1839   1.157       .  T
C1838      N1840   1.157       .  T
C1841      C1842   1.404       .  A
C1841      C1846   1.412       .  A
C1842      C1843   1.404       .  A
C1842      H1847   1.084       .  S
C1843      C1844   1.412       .  A
C1843      C1850   1.442       .  S
C1844      C1845   1.403       .  A
C1845      C1846   1.395       .  A
C1845      H1848   1.085       .  S
C1846      C1849   1.445       .  S
C1849      N1851   1.157       .  T
C1850      N1852   1.157       .  T
C1853      C1854   1.401       .  A
C1853      C1858   1.419       .  A
C1854      C1855   1.398       .  A
C1854      H1859   1.084       .  S
C1855      C1856   1.420       .  A
C1855      C1862   1.444       .  S
C1856      C1857   1.404       .  A
C1857      C1858   1.402       .  A
C1857      H1860   1.085       .  S
C1858      C1861   1.444       .  S
C1861      N1863   1.157       .  T
C1862      N1864   1.157       .  T
C1865      C1866   1.398       .  A
C1865      C1870   1.418       .  A
C1866      C1867   1.401       .  A
C1866      H1871   1.085       .  S
C1867      C1868   1.425       .  A
C1867      C1874   1.445       .  S
C1868      C1869   1.404       .  A
C1869      C1870   1.399       .  A
C1869      H1872   1.084       .  S
C1870      C1873   1.445       .  S
C1873      N1875   1.157       .  T
C1874      N1876   1.158       .  T
C1877      C1878   1.401       .  A
C1877      C1882   1.413       .  A
C1878      C1879   1.404       .  A
C1878      H1883   1.085       .  S
C1879      C1880   1.415       .  A
C1879      C1886   1.444       .  S
C1880      C1881   1.401       .  A
C1881      C1882   1.401       .  A
C1881      H1884   1.085       .  S
C1882      C1885   1.444       .  S
C1885      N1887   1.157       .  T
C1886      N1888   1.157       .  T
C1889      C1890   1.406       .  A
C1889      C1894   1.412       .  A
C1890      C1891   1.405       .  A
C1890      H1895   1.085       .  S
C1891      C1892   1.416       .  A
C1891      C1898   1.444       .  S
C1892      C1893   1.405       .  A
C1893      C1894   1.398       .  A
C1893      H1896   1.085       .  S
C1894      C1897   1.441       .  S
C1897      N1899   1.157       .  T
C1898      N1900   1.157       .  T
C1901      C1902   1.400       .  A
C1901      C1906   1.411       .  A
C1902      C1903   1.398       .  A
C1902      H1907   1.085       .  S
C1903      C1904   1.425       .  A
C1903      C1910   1.441       .  S
C1904      C1905   1.414       .  A
C1905      C1906   1.397       .  A
C1905      H1908   1.083       .  S
C1906      C1909   1.445       .  S
C1909      N1911   1.157       .  T
C1910      N1912   1.158       .  T
C1913      C1914   1.402       .  A
C1913      C1918   1.414       .  A
C1914      C1915   1.396       .  A
C1914      H1919   1.084       .  S
C1915      C1916   1.412       .  A
C1915      C1922   1.442       .  S
C1916      C1917   1.405       .  A
C1917      C1918   1.404       .  A
C1917      H1920   1.085       .  S
C1918      C1921   1.443       .  S
C1921      N1923   1.157       .  T
C1922      N1924   1.156       .  T
C1925      C1926   1.411       .  A
C1925      C1930   1.420       .  A
C1926      C1927   1.395       .  A
C1926      H1931   1.085       .  S
C1927      C1928   1.412       .  A
C1927      C1934   1.446       .  S
C1928      C1929   1.403       .  A
C1929      C1930   1.403       .  A
C1929      H1932   1.085       .  S
C1930      C1933   1.440       .  S
C1933      N1935   1.157       .  T
C1934      N1936   1.157       .  T
C1937      C1938   1.403       .  A
C1937      C1942   1.412       .  A
C1938      C1939   1.405       .  A
C1938      H1943   1.085       .  S
C1939      C1940   1.416       .  A
C1939      C1946   1.443       .  S
C1940      C1941   1.405       .  A
C1941      C1942   1.401       .  A
C1941      H1944   1.084       .  S
C1942      C1945   1.445       .  S
C1945      N1947   1.157       .  T
C1946      N1948   1.157       .  T
C1949      C1950   1.411       .  A
C1949      C1954   1.426       .  A
C1950      C1951   1.402       .  A
C1950      H1955   1.078       .  S
C1951      C1952   1.408       .  A
C1951      C1958   1.445       .  S
C1952      C1953   1.396       .  A
C1953      C1954   1.399       .  A
C1953      H1956   1.085       .  S
C1954      C1957   1.446       .  S
C1957      N1959   1.157       .  T
C1958      N1960   1.157       .  T
C1961      C1962   1.401       .  A
C1961      C1966   1.409       .  A
C1962      C1963   1.407       .  A
C1962      H1967   1.084       .  S
C1963      C1964   1.419       .  A
C1963      C1970   1.444       .  S
C1964      C1965   1.408       .  A
C1965      C1966   1.401       .  A
C1965      H1968   1.084       .  S
C1966      C1969   1.444       .  S
C1969      N1971   1.157       .  T
C1970      N1972   1.158       .  T
C1973      C1974   1.410       .  A
C1973      C1978   1.414       .  A
C1974      C1975   1.406       .  A
C1974      H1979   1.084       .  S
C1975      C1976   1.414       .  A
C1975      C1982   1.444       .  S
C1976      C1977   1.406       .  A
C1977      C1978   1.402       .  A
C1977      H1980   1.085       .  S
C1978      C1981   1.442       .  S
C1981      N1983   1.157       .  T
C1982      N1984   1.157   1_556  T
C1985      C1986   1.401       .  A
C1985      C1990   1.413       .  A
C1986      C1987   1.396       .  A
C1986      H1991   1.085       .  S
C1987      C1988   1.416       .  A
C1987      C1994   1.441       .  S
C1988      C1989   1.409       .  A
C1989      C1990   1.405       .  A
C1989      H1992   1.084       .  S
C1990      C1993   1.444       .  S
C1993      N1995   1.157   1_565  T
C1994      N1996   1.157       .  T
C1997      C1998   1.401       .  A
C1997      C2002   1.411       .  A
C1998      C1999   1.397       .  A
C1998      H2003   1.085       .  S
C1999      C2000   1.423       .  A
C1999      C2006   1.444       .  S
C2000      C2001   1.413       .  A
C2001      C2002   1.402       .  A
C2001      H2004   1.078       .  S
C2002      C2005   1.445       .  S
C2005      N2007   1.157       .  T
C2006      N2008   1.157       .  T
C2009      C2010   1.403       .  A
C2009      C2014   1.416       .  A
C2010      C2011   1.395       .  A
C2010      H2015   1.085       .  S
C2011      C2012   1.421       .  A
C2011      C2018   1.444       .  S
C2012      C2013   1.412       .  A
C2013      C2014   1.404       .  A
C2013      H2016   1.077       .  S
C2014      C2017   1.445       .  S
C2017      N2019   1.157       .  T
C2018      N2020   1.157       .  T
C2021      C2022   1.411       .  A
C2021      C2026   1.417       .  A
C2022      C2023   1.405       .  A
C2022      H2027   1.084       .  S
C2023      C2024   1.411       .  A
C2023      C2030   1.444       .  S
C2024      C2025   1.406       .  A
C2025      C2026   1.405       .  A
C2025      H2028   1.085       .  S
C2026      C2029   1.443       .  S
C2029      N2031   1.157       .  T
C2030      N2032   1.157       .  T
C2033      C2034   1.404       .  A
C2033      C2038   1.417       .  A
C2034      C2035   1.401       .  A
C2034      H2039   1.085       .  S
C2035      C2036   1.412       .  A
C2035      C2042   1.444       .  S
C2036      C2037   1.403       .  A
C2037      C2038   1.405       .  A
C2037      H2040   1.084       .  S
C2038      C2041   1.445       .  S
C2041      N2043   1.158       .  T
C2042      N2044   1.157       .  T
C2045      C2046   1.401       .  A
C2045      C2050   1.420       .  A
C2046      C2047   1.402       .  A
C2046      H2051   1.085       .  S
C2047      C2048   1.418       .  A
C2047      C2054   1.443       .  S
C2048      C2049   1.398       .  A
C2049      C2050   1.399       .  A
C2049      H2052   1.085       .  S
C2050      C2053   1.445       .  S
C2053      N2055   1.157       .  T
C2054      N2056   1.157       .  T
C2057      C2058   1.404       .  A
C2057      C2062   1.424       .  A
C2058      C2059   1.400       .  A
C2058      H2063   1.084       .  S
C2059      C2060   1.410       .  A
C2059      C2066   1.443       .  S
C2060      C2061   1.395       .  A
C2061      C2062   1.400       .  A
C2061      H2064   1.085       .  S
C2062      C2065   1.445       .  S
C2065      N2067   1.158       .  T
C2066      N2068   1.157       .  T
C2069      C2070   1.414       .  A
C2069      C2074   1.423       .  A
C2070      C2071   1.400       .  A
C2070      H2075   1.079       .  S
C2071      C2072   1.410       .  A
C2071      C2078   1.445       .  S
C2072      C2073   1.402       .  A
C2073      C2074   1.397       .  A
C2073      H2076   1.085       .  S
C2074      C2077   1.444       .  S
C2077      N2079   1.157       .  T
C2078      N2080   1.157       .  T
C2081      C2082   1.407       .  A
C2081      C2086   1.411       .  A
C2082      C2083   1.404       .  A
C2082      H2087   1.085       .  S
C2083      C2084   1.414       .  A
C2083      C2090   1.444       .  S
C2084      C2085   1.406       .  A
C2085      C2086   1.398       .  A
C2085      H2088   1.085       .  S
C2086      C2089   1.443       .  S
C2089      N2091   1.157       .  T
C2090      N2092   1.157       .  T
C2093      C2094   1.401       .  A
C2093      C2098   1.414       .  A
C2094      C2095   1.401       .  A
C2094      H2099   1.085       .  S
C2095      C2096   1.412       .  A
C2095      C2102   1.442       .  S
C2096      C2097   1.401       .  A
C2097      C2098   1.402       .  A
C2097      H2100   1.085       .  S
C2098      C2101   1.444       .  S
C2101      N2103   1.157       .  T
C2102      N2104   1.157       .  T
C2105      C2106   1.406       .  A
C2105      C2110   1.403       .  A
C2106      C2107   1.402       .  A
C2106      H2111   1.085       .  S
C2107      C2108   1.414       .  A
C2107      C2114   1.443       .  S
C2108      C2109   1.413       .  A
C2109      C2110   1.397       .  A
C2109      H2112   1.084       .  S
C2110      C2113   1.444       .  S
C2113      N2115   1.157       .  T
C2114      N2116   1.157       .  T
C2117      C2118   1.408       .  A
C2117      C2122   1.425       .  A
C2118      C2119   1.403       .  A
C2118      H2123   1.084       .  S
C2119      C2120   1.409       .  A
C2119      C2126   1.444       .  S
C2120      C2121   1.393       .  A
C2121      C2122   1.395       .  A
C2121      H2124   1.085       .  S
C2122      C2125   1.446       .  S
C2125      N2127   1.158       .  T
C2126      N2128   1.157       .  T
C2129      C2130   1.400       .  A
C2129      C2134   1.419       .  A
C2130      C2131   1.395       .  A
C2130      H2135   1.085       .  S
C2131      C2132   1.424       .  A
C2131      C2138   1.446       .  S
C2132      C2133   1.408       .  A
C2133      C2134   1.404       .  A
C2133      H2136   1.079       .  S
C2134      C2137   1.445       .  S
C2137      N2139   1.157       .  T
C2138      N2140   1.157       .  T
C2141      C2142   1.403       .  A
C2141      C2146   1.417       .  A
C2142      C2143   1.405       .  A
C2142      H2147   1.085       .  S
C2143      C2144   1.418       .  A
C2143      C2150   1.444       .  S
C2144      C2145   1.403       .  A
C2145      C2146   1.402       .  A
C2145      H2148   1.085       .  S
C2146      C2149   1.445       .  S
C2149      N2151   1.157       .  T
C2150      N2152   1.157       .  T
C2153      C2154   1.396       .  A
C2153      C2158   1.412       .  A
C2154      C2155   1.400       .  A
C2154      H2159   1.084       .  S
C2155      C2156   1.422       .  A
C2155      C2162   1.445       .  S
C2156      C2157   1.404       .  A
C2157      C2158   1.400       .  A
C2157      H2160   1.084       .  S
C2158      C2161   1.445       .  S
C2161      N2163   1.157       .  T
C2162      N2164   1.158       .  T
C2165      C2166   1.405       .  A
C2165      C2170   1.412       .  A
C2166      C2167   1.407       .  A
C2166      H2171   1.084       .  S
C2167      C2168   1.413       .  A
C2167      C2174   1.443       .  S
C2168      C2169   1.403       .  A
C2169      C2170   1.393       .  A
C2169      H2172   1.085       .  S
C2170      C2173   1.446       .  S
C2173      N2175   1.157       .  T
C2174      N2176   1.157       .  T
C2177      C2178   1.398       .  A
C2177      C2182   1.410       .  A
C2178      C2179   1.402       .  A
C2178      H2183   1.085       .  S
C2179      C2180   1.421       .  A
C2179      C2186   1.444       .  S
C2180      C2181   1.407       .  A
C2181      C2182   1.402       .  A
C2181      H2184   1.084       .  S
C2182      C2185   1.443       .  S
C2185      N2187   1.157       .  T
C2186      N2188   1.157       .  T
C2189      C2190   1.404       .  A
C2189      C2194   1.412       .  A
C2190      C2191   1.401       .  A
C2190      H2195   1.085       .  S
C2191      C2192   1.416       .  A
C2191      C2198   1.445       .  S
C2192      C2193   1.407       .  A
C2193      C2194   1.406       .  A
C2193      H2196   1.084       .  S
C2194      C2197   1.443       .  S
C2197      N2199   1.157       .  T
C2198      N2200   1.158       .  T
C2201      C2202   1.410       .  A
C2201      C2206   1.413       .  A
C2202      C2203   1.404       .  A
C2202      H2207   1.084       .  S
C2203      C2204   1.411       .  A
C2203      C2210   1.444       .  S
C2204      C2205   1.406       .  A
C2205      C2206   1.402       .  A
C2205      H2208   1.085       .  S
C2206      C2209   1.442       .  S
C2209      N2211   1.157       .  T
C2210      N2212   1.157       .  T
C2213      C2214   1.405       .  A
C2213      C2218   1.410       .  A
C2214      C2215   1.402       .  A
C2214      H2219   1.084       .  S
C2215      C2216   1.412       .  A
C2215      C2222   1.444       .  S
C2216      C2217   1.404       .  A
C2217      C2218   1.401       .  A
C2217      H2220   1.084       .  S
C2218      C2221   1.443       .  S
C2221      N2223   1.157       .  T
C2222      N2224   1.157       .  T
C2225      C2226   1.410       .  A
C2225      C2230   1.413       .  A
C2226      C2227   1.407       .  A
C2226      H2231   1.084       .  S
C2227      C2228   1.413       .  A
C2227      C2234   1.444       .  S
C2228      C2229   1.406       .  A
C2229      C2230   1.400       .  A
C2229      H2232   1.085       .  S
C2230      C2233   1.443       .  S
C2233      N2235   1.157       .  T
C2234      N2236   1.157       .  T
C2237      C2238   1.409       .  A
C2237      C2242   1.428       .  A
C2238      C2239   1.403       .  A
C2238      H2243   1.079       .  S
C2239      C2240   1.411       .  A
C2239      C2246   1.445       .  S
C2240      C2241   1.394       .  A
C2241      C2242   1.395       .  A
C2241      H2244   1.085       .  S
C2242      C2245   1.447       .  S
C2245      N2247   1.157       .  T
C2246      N2248   1.157       .  T
C2249      C2250   1.404       .  A
C2249      C2254   1.410       .  A
C2250      C2251   1.401       .  A
C2250      H2255   1.085       .  S
C2251      C2252   1.409       .  A
C2251      C2258   1.444       .  S
C2252      C2253   1.402       .  A
C2253      C2254   1.402       .  A
C2253      H2256   1.085       .  S
C2254      C2257   1.443       .  S
C2257      N2259   1.157       .  T
C2258      N2260   1.157       .  T
C2261      C2262   1.407       .  A
C2261      C2266   1.411       .  A
C2262      C2263   1.402       .  A
C2262      H2267   1.085       .  S
C2263      C2264   1.411       .  A
C2263      C2270   1.443       .  S
C2264      C2265   1.408       .  A
C2265      C2266   1.404       .  A
C2265      H2268   1.085       .  S
C2266      C2269   1.444       .  S
C2269      N2271   1.157       .  T
C2270      N2272   1.157       .  T
C2273      C2274   1.411       .  A
C2273      C2278   1.425       .  A
C2274      C2275   1.399       .  A
C2274      H2279   1.076       .  S
C2275      C2276   1.408       .  A
C2275      C2282   1.445       .  S
C2276      C2277   1.397       .  A
C2277      C2278   1.398       .  A
C2277      H2280   1.085       .  S
C2278      C2281   1.446       .  S
C2281      N2283   1.157       .  T
C2282      N2284   1.157       .  T
C2285      C2286   1.405       .  A
C2285      C2290   1.404       .  A
C2286      C2287   1.400       .  A
C2286      H2291   1.085       .  S
C2287      C2288   1.413       .  A
C2287      C2294   1.444       .  S
C2288      C2289   1.412       .  A
C2289      C2290   1.399       .  A
C2289      H2292   1.085       .  S
C2290      C2293   1.444       .  S
C2293      N2295   1.157       .  T
C2294      N2296   1.157       .  T
C2297      C2298   1.403       .  A
C2297      C2302   1.415       .  A
C2298      C2299   1.406       .  A
C2298      H2303   1.085       .  S
C2299      C2300   1.416       .  A
C2299      C2306   1.443       .  S
C2300      C2301   1.404       .  A
C2301      C2302   1.403       .  A
C2301      H2304   1.085       .  S
C2302      C2305   1.445       .  S
C2305      N2307   1.157       .  T
C2306      N2308   1.157       .  T
C2309      C2310   1.401       .  A
C2309      C2314   1.411       .  A
C2310      C2311   1.397       .  A
C2310      H2315   1.085       .  S
C2311      C2312   1.424       .  A
C2311      C2318   1.445       .  S
C2312      C2313   1.414       .  A
C2313      C2314   1.406       .  A
C2313      H2316   1.078       .  S
C2314      C2317   1.444       .  S
C2317      N2319   1.157       .  T
C2318      N2320   1.157       .  T
C2321      C2322   1.407       .  A
C2321      C2326   1.414       .  A
C2322      C2323   1.406       .  A
C2322      H2327   1.085       .  S
C2323      C2324   1.412       .  A
C2323      C2330   1.442       .  S
C2324      C2325   1.406       .  A
C2325      C2326   1.403       .  A
C2325      H2328   1.085       .  S
C2326      C2329   1.444       .  S
C2329      N2331   1.157       .  T
C2330      N2332   1.157       .  T
C2333      C2334   1.402       .  A
C2333      C2338   1.406       .  A
C2334      C2335   1.405       .  A
C2334      H2339   1.085       .  S
C2335      C2336   1.412       .  A
C2335      C2342   1.442       .  S
C2336      C2337   1.407       .  A
C2337      C2338   1.394       .  A
C2337      H2340   1.085       .  S
C2338      C2341   1.445       .  S
C2341      N2343   1.157       .  T
C2342      N2344   1.157       .  T
C2345      C2346   1.400       .  A
C2345      C2350   1.417       .  A
C2346      C2347   1.401       .  A
C2346      H2351   1.072       .  S
C2347      C2348   1.416       .  A
C2347      C2354   1.446       .  S
C2348      C2349   1.399       .  A
C2349      C2350   1.400       .  A
C2349      H2352   1.084       .  S
C2350      C2353   1.443       .  S
C2353      N2355   1.157       .  T
C2354      N2356   1.157       .  T
C2357      C2358   1.404       .  A
C2357      C2362   1.416       .  A
C2358      C2359   1.405       .  A
C2358      H2363   1.085       .  S
C2359      C2360   1.414       .  A
C2359      C2366   1.444       .  S
C2360      C2361   1.400       .  A
C2361      C2362   1.400       .  A
C2361      H2364   1.085       .  S
C2362      C2365   1.443       .  S
C2365      N2367   1.157       .  T
C2366      N2368   1.157       .  T
C2369      C2370   1.405       .  A
C2369      C2374   1.410       .  A
C2370      C2371   1.403       .  A
C2370      H2375   1.085       .  S
C2371      C2372   1.415       .  A
C2371      C2378   1.445       .  S
C2372      C2373   1.407       .  A
C2373      C2374   1.406       .  A
C2373      H2376   1.085       .  S
C2374      C2377   1.442       .  S
C2377      N2379   1.157       .  T
C2378      N2380   1.157       .  T
C2381      C2382   1.403       .  A
C2381      C2386   1.417       .  A
C2382      C2383   1.400       .  A
C2382      H2387   1.085       .  S
C2383      C2384   1.416       .  A
C2383      C2390   1.444       .  S
C2384      C2385   1.403       .  A
C2385      C2386   1.404       .  A
C2385      H2388   1.085       .  S
C2386      C2389   1.444       .  S
C2389      N2391   1.157       .  T
C2390      N2392   1.157       .  T
C2393      C2394   1.410       .  A
C2393      C2398   1.422       .  A
C2394      C2395   1.401       .  A
C2394      H2399   1.077       .  S
C2395      C2396   1.417       .  A
C2395      C2402   1.445       .  S
C2396      C2397   1.402       .  A
C2397      C2398   1.396       .  A
C2397      H2400   1.085       .  S
C2398      C2401   1.446       .  S
C2401      N2403   1.157       .  T
C2402      N2404   1.158       .  T
C2405      C2406   1.405       .  A
C2405      C2410   1.420       .  A
C2406      C2407   1.402       .  A
C2406      H2411   1.084       .  S
C2407      C2408   1.412       .  A
C2407      C2414   1.444       .  S
C2408      C2409   1.395       .  A
C2409      C2410   1.397       .  A
C2409      H2412   1.082       .  S
C2410      C2413   1.445       .  S
C2413      N2415   1.157       .  T
C2414      N2416   1.157       .  T
C2417      C2418   1.403       .  A
C2417      C2422   1.418       .  A
C2418      C2419   1.403       .  A
C2418      H2423   1.081       .  S
C2419      C2420   1.416       .  A
C2419      C2426   1.445       .  S
C2420      C2421   1.405       .  A
C2421      C2422   1.406       .  A
C2421      H2424   1.085       .  S
C2422      C2425   1.444       .  S
C2425      N2427   1.157       .  T
C2426      N2428   1.157       .  T
C2429      C2430   1.404       .  A
C2429      C2434   1.406       .  A
C2430      C2431   1.401       .  A
C2430      H2435   1.084       .  S
C2431      C2432   1.414       .  A
C2431      C2438   1.445       .  S
C2432      C2433   1.406       .  A
C2433      C2434   1.400       .  A
C2433      H2436   1.085       .  S
C2434      C2437   1.443       .  S
C2437      N2439   1.157       .  T
C2438      N2440   1.157   1_556  T
C2441      C2442   1.413       .  A
C2441      C2446   1.423       .  A
C2442      C2443   1.400       .  A
C2442      H2447   1.078       .  S
C2443      C2444   1.412       .  A
C2443      C2450   1.445       .  S
C2444      C2445   1.402       .  A
C2445      C2446   1.396       .  A
C2445      H2448   1.085       .  S
C2446      C2449   1.445       .  S
C2449      N2451   1.157       .  T
C2450      N2452   1.157       .  T
C2453      C2454   1.405       .  A
C2453      C2458   1.412       .  A
C2454      C2455   1.402       .  A
C2454      H2459   1.085       .  S
C2455      C2456   1.413       .  A
C2455      C2462   1.443       .  S
C2456      C2457   1.410       .  A
C2457      C2458   1.408       .  A
C2457      H2460   1.084       .  S
C2458      C2461   1.443       .  S
C2461      N2463   1.157       .  T
C2462      N2464   1.157       .  T
C2465      C2466   1.407       .  A
C2465      C2470   1.405       .  A
C2466      C2467   1.399       .  A
C2466      H2471   1.085       .  S
C2467      C2468   1.412       .  A
C2467      C2474   1.444       .  S
C2468      C2469   1.409       .  A
C2469      C2470   1.399       .  A
C2469      H2472   1.085       .  S
C2470      C2473   1.443       .  S
C2473      N2475   1.157       .  T
C2474      N2476   1.157       .  T
C2477      C2478   1.411       .  A
C2477      C2482   1.420       .  A
C2478      C2479   1.407       .  A
C2478      H2483   1.084       .  S
C2479      C2480   1.410       .  A
C2479      C2486   1.443       .  S
C2480      C2481   1.399       .  A
C2481      C2482   1.398       .  A
C2481      H2484   1.086       .  S
C2482      C2485   1.442       .  S
C2485      N2487   1.157       .  T
C2486      N2488   1.157       .  T
C2489      C2490   1.409       .  A
C2489      C2494   1.424       .  A
C2490      C2491   1.405       .  A
C2490      H2495   1.078       .  S
C2491      C2492   1.418       .  A
C2491      C2498   1.445       .  S
C2492      C2493   1.401       .  A
C2493      C2494   1.397       .  A
C2493      H2496   1.085       .  S
C2494      C2497   1.447       .  S
C2497      N2499   1.157       .  T
C2498      N2500   1.158       .  T
C2501      C2502   1.400       .  A
C2501      C2506   1.410       .  A
C2502      C2503   1.403       .  A
C2502      H2507   1.085       .  S
C2503      C2504   1.418       .  A
C2503      C2510   1.444       .  S
C2504      C2505   1.405       .  A
C2505      C2506   1.398       .  A
C2505      H2508   1.085       .  S
C2506      C2509   1.445       .  S
C2509      N2511   1.157       .  T
C2510      N2512   1.158       .  T
C2513      C2514   1.409       .  A
C2513      C2518   1.422       .  A
C2514      C2515   1.399       .  A
C2514      H2519   1.077       .  S
C2515      C2516   1.415       .  A
C2515      C2522   1.446       .  S
C2516      C2517   1.401       .  A
C2517      C2518   1.396       .  A
C2517      H2520   1.085       .  S
C2518      C2521   1.446       .  S
C2521      N2523   1.157       .  T
C2522      N2524   1.158       .  T
C2525      C2526   1.407       .  A
C2525      C2530   1.421       .  A
C2526      C2527   1.402       .  A
C2526      H2531   1.082       .  S
C2527      C2528   1.416       .  A
C2527      C2534   1.445       .  S
C2528      C2529   1.402       .  A
C2529      C2530   1.402       .  A
C2529      H2532   1.085       .  S
C2530      C2533   1.441       .  S
C2533      N2535   1.157       .  T
C2534      N2536   1.158       .  T
C2537      C2538   1.398       .  A
C2537      C2542   1.409       .  A
C2538      C2539   1.397       .  A
C2538      H2543   1.085       .  S
C2539      C2540   1.425       .  A
C2539      C2546   1.445       .  S
C2540      C2541   1.413       .  A
C2541      C2542   1.404       .  A
C2541      H2544   1.078       .  S
C2542      C2545   1.444       .  S
C2545      N2547   1.157       .  T
C2546      N2548   1.157       .  T
C2549      C2550   1.406       .  A
C2549      C2554   1.410       .  A
C2550      C2551   1.407       .  A
C2550      H2555   1.085       .  S
C2551      C2552   1.417       .  A
C2551      C2558   1.443       .  S
C2552      C2553   1.404       .  A
C2553      C2554   1.395       .  A
C2553      H2556   1.085       .  S
C2554      C2557   1.440       .  S
C2557      N2559   1.156       .  T
C2558      N2560   1.157       .  T
C2561      C2562   1.413       .  A
C2561      C2566   1.424       .  A
C2562      C2563   1.405       .  A
C2562      H2567   1.079       .  S
C2563      C2564   1.413       .  A
C2563      C2570   1.444       .  S
C2564      C2565   1.401       .  A
C2565      C2566   1.397       .  A
C2565      H2568   1.085       .  S
C2566      C2569   1.445       .  S
C2569      N2571   1.157       .  T
C2570      N2572   1.157       .  T
C2573      C2574   1.403       .  A
C2573      C2578   1.406       .  A
C2574      C2575   1.401       .  A
C2574      H2579   1.085       .  S
C2575      C2576   1.409       .  A
C2575      C2582   1.443       .  S
C2576      C2577   1.404       .  A
C2577      C2578   1.396       .  A
C2577      H2580   1.085       .  S
C2578      C2581   1.445       .  S
C2581      N2583   1.157       .  T
C2582      N2584   1.157       .  T
C2585      C2586   1.414       .  A
C2585      C2590   1.422       .  A
C2586      C2587   1.406       .  A
C2586      H2591   1.083       .  S
C2587      C2588   1.407       .  A
C2587      C2594   1.443       .  S
C2588      C2589   1.400       .  A
C2589      C2590   1.397       .  A
C2589      H2592   1.086       .  S
C2590      C2593   1.441       .  S
C2593      N2595   1.158       .  T
C2594      N2596   1.157   1_655  T
C2597      C2598   1.413       .  A
C2597      C2602   1.423       .  A
C2598      C2599   1.399       .  A
C2598      H2603   1.078       .  S
C2599      C2600   1.411       .  A
C2599      C2606   1.445       .  S
C2600      C2601   1.401       .  A
C2601      C2602   1.396       .  A
C2601      H2604   1.085       .  S
C2602      C2605   1.445       .  S
C2605      N2607   1.158       .  T
C2606      N2608   1.157       .  T
C2609      C2610   1.400       .  A
C2609      C2614   1.412       .  A
C2610      C2611   1.402       .  A
C2610      H2615   1.085       .  S
C2611      C2612   1.419       .  A
C2611      C2618   1.443       .  S
C2612      C2613   1.406       .  A
C2613      C2614   1.405       .  A
C2613      H2616   1.084       .  S
C2614      C2617   1.443       .  S
C2617      N2619   1.157       .  T
C2618      N2620   1.157       .  T
C2621      C2622   1.401       .  A
C2621      C2626   1.412       .  A
C2622      C2623   1.405       .  A
C2622      H2627   1.082       .  S
C2623      C2624   1.418       .  A
C2623      C2630   1.445       .  S
C2624      C2625   1.405       .  A
C2625      C2626   1.403       .  A
C2625      H2628   1.085       .  S
C2626      C2629   1.444       .  S
C2629      N2631   1.157       .  T
C2630      N2632   1.158       .  T
C2633      C2634   1.406       .  A
C2633      C2638   1.411       .  A
C2634      C2635   1.403       .  A
C2634      H2639   1.084       .  S
C2635      C2636   1.411       .  A
C2635      C2642   1.443       .  S
C2636      C2637   1.405       .  A
C2637      C2638   1.401       .  A
C2637      H2640   1.085       .  S
C2638      C2641   1.442       .  S
C2641      N2643   1.157       .  T
C2642      N2644   1.157       .  T
C2645      C2646   1.402       .  A
C2645      C2650   1.422       .  A
C2646      C2647   1.394       .  A
C2646      H2651   1.083       .  S
C2647      C2648   1.414       .  A
C2647      C2654   1.443       .  S
C2648      C2649   1.404       .  A
C2649      C2650   1.409       .  A
C2649      H2652   1.085       .  S
C2650      C2653   1.443       .  S
C2653      N2655   1.158       .  T
C2654      N2656   1.157       .  T
C2657      C2658   1.410       .  A
C2657      C2662   1.415       .  A
C2658      C2659   1.405       .  A
C2658      H2663   1.084       .  S
C2659      C2660   1.414       .  A
C2659      C2666   1.444       .  S
C2660      C2661   1.406       .  A
C2661      C2662   1.401       .  A
C2661      H2664   1.085       .  S
C2662      C2665   1.442       .  S
C2665      N2667   1.157       .  T
C2666      N2668   1.157       .  T
C2669      C2670   1.415       .  A
C2669      C2674   1.420       .  A
C2670      C2671   1.399       .  A
C2670      H2675   1.077       .  S
C2671      C2672   1.410       .  A
C2671      C2678   1.445       .  S
C2672      C2673   1.404       .  A
C2673      C2674   1.398       .  A
C2673      H2676   1.085       .  S
C2674      C2677   1.444       .  S
C2677      N2679   1.157       .  T
C2678      N2680   1.157       .  T
C2681      C2682   1.395       .  A
C2681      C2686   1.412       .  A
C2682      C2683   1.395       .  A
C2682      H2687   1.085       .  S
C2683      C2684   1.427       .  A
C2683      C2690   1.445       .  S
C2684      C2685   1.410       .  A
C2685      C2686   1.402       .  A
C2685      H2688   1.079       .  S
C2686      C2689   1.445       .  S
C2689      N2691   1.157   1_655  T
C2690      N2692   1.157       .  T
C2693      C2694   1.411       .  A
C2693      C2698   1.422       .  A
C2694      C2695   1.405       .  A
C2694      H2699   1.079       .  S
C2695      C2696   1.413       .  A
C2695      C2702   1.445   1_455  S
C2696      C2697   1.399       .  A
C2697      C2698   1.394       .  A
C2697      H2700   1.085       .  S
C2698      C2701   1.443       .  S
C2701      N2703   1.156       .  T
C2702      N2704   1.157       .  T
C2705      C2706   1.409       .  A
C2705      C2710   1.420       .  A
C2706      C2707   1.403       .  A
C2706      H2711   1.082       .  S
C2707      C2708   1.407       .  A
C2707      C2714   1.443       .  S
C2708      C2709   1.400       .  A
C2709      C2710   1.402       .  A
C2709      H2712   1.085       .  S
C2710      C2713   1.444       .  S
C2713      N2715   1.157       .  T
C2714      N2716   1.157       .  T
C2717      C2718   1.393       .  A
C2717      C2722   1.413       .  A
C2718      C2719   1.398       .  A
C2718      H2723   1.083       .  S
C2719      C2720   1.424       .  A
C2719      C2726   1.445       .  S
C2720      C2721   1.405       .  A
C2721      C2722   1.403       .  A
C2721      H2724   1.084       .  S
C2722      C2725   1.444       .  S
C2725      N2727   1.157       .  T
C2726      N2728   1.157       .  T
C2729      C2730   1.397       .  A
C2729      C2734   1.409       .  A
C2730      C2731   1.400       .  A
C2730      H2735   1.085       .  S
C2731      C2732   1.426       .  A
C2731      C2738   1.445       .  S
C2732      C2733   1.413       .  A
C2733      C2734   1.404       .  A
C2733      H2736   1.077       .  S
C2734      C2737   1.445       .  S
C2737      N2739   1.157       .  T
C2738      N2740   1.157       .  T
C2741      C2742   1.407       .  A
C2741      C2746   1.412       .  A
C2742      C2743   1.402       .  A
C2742      H2747   1.085       .  S
C2743      C2744   1.412       .  A
C2743      C2750   1.443       .  S
C2744      C2745   1.409       .  A
C2745      C2746   1.405       .  A
C2745      H2748   1.085       .  S
C2746      C2749   1.444       .  S
C2749      N2751   1.157       .  T
C2750      N2752   1.157       .  T
C2753      C2754   1.404       .  A
C2753      C2758   1.411       .  A
C2754      C2755   1.402       .  A
C2754      H2759   1.085       .  S
C2755      C2756   1.418       .  A
C2755      C2762   1.442       .  S
C2756      C2757   1.412       .  A
C2757      C2758   1.404       .  A
C2757      H2760   1.084       .  S
C2758      C2761   1.444       .  S
C2761      N2763   1.157       .  T
C2762      N2764   1.157       .  T
C2765      C2766   1.404       .  A
C2765      C2770   1.421       .  A
C2766      C2767   1.398       .  A
C2766      H2771   1.084       .  S
C2767      C2768   1.417       .  A
C2767      C2774   1.445       .  S
C2768      C2769   1.401       .  A
C2769      C2770   1.402       .  A
C2769      H2772   1.083       .  S
C2770      C2773   1.445       .  S
C2773      N2775   1.158       .  T
C2774      N2776   1.157       .  T
C2777      C2778   1.402       .  A
C2777      C2782   1.417       .  A
C2778      C2779   1.401       .  A
C2778      H2783   1.085       .  S
C2779      C2780   1.416       .  A
C2779      C2786   1.444       .  S
C2780      C2781   1.400       .  A
C2781      C2782   1.402       .  A
C2781      H2784   1.084       .  S
C2782      C2785   1.444       .  S
C2785      N2787   1.157       .  T
C2786      N2788   1.157       .  T
C2789      C2790   1.405       .  A
C2789      C2794   1.409       .  A
C2790      C2791   1.404       .  A
C2790      H2795   1.085       .  S
C2791      C2792   1.416       .  A
C2791      C2798   1.445       .  S
C2792      C2793   1.407       .  A
C2793      C2794   1.404       .  A
C2793      H2796   1.085       .  S
C2794      C2797   1.442       .  S
C2797      N2799   1.157       .  T
C2798      N2800   1.158       .  T
C2801      C2802   1.405       .  A
C2801      C2806   1.414       .  A
C2802      C2803   1.409       .  A
C2802      H2807   1.085       .  S
C2803      C2804   1.415       .  A
C2803      C2810   1.441       .  S
C2804      C2805   1.402       .  A
C2805      C2806   1.392       .  A
C2805      H2808   1.086       .  S
C2806      C2809   1.445       .  S
C2809      N2811   1.157       .  T
C2810      N2812   1.157       .  T
C2813      C2814   1.401       .  A
C2813      C2818   1.413       .  A
C2814      C2815   1.402       .  A
C2814      H2819   1.085       .  S
C2815      C2816   1.415       .  A
C2815      C2822   1.444       .  S
C2816      C2817   1.403       .  A
C2817      C2818   1.399       .  A
C2817      H2820   1.085       .  S
C2818      C2821   1.445       .  S
C2821      N2823   1.157       .  T
C2822      N2824   1.157       .  T
C2825      C2826   1.399       .  A
C2825      C2830   1.421       .  A
C2826      C2827   1.398       .  A
C2826      H2831   1.082       .  S
C2827      C2828   1.422       .  A
C2827      C2834   1.446       .  S
C2828      C2829   1.402       .  A
C2829      C2830   1.400       .  A
C2829      H2832   1.085       .  S
C2830      C2833   1.445       .  S
C2833      N2835   1.157       .  T
C2834      N2836   1.158       .  T
C2837      C2838   1.407       .  A
C2837      C2842   1.413       .  A
C2838      C2839   1.400       .  A
C2838      H2843   1.085       .  S
C2839      C2840   1.414       .  A
C2839      C2846   1.444       .  S
C2840      C2841   1.410       .  A
C2841      C2842   1.403       .  A
C2841      H2844   1.084       .  S
C2842      C2845   1.444       .  S
C2845      N2847   1.157   1_455  T
C2846      N2848   1.157       .  T
C2849      C2850   1.412       .  A
C2849      C2854   1.425       .  A
C2850      C2851   1.399       .  A
C2850      H2855   1.077       .  S
C2851      C2852   1.407       .  A
C2851      C2858   1.446       .  S
C2852      C2853   1.396       .  A
C2853      C2854   1.398       .  A
C2853      H2856   1.085       .  S
C2854      C2857   1.446       .  S
C2857      N2859   1.157       .  T
C2858      N2860   1.157   1_455  T
C2861      C2862   1.397       .  A
C2861      C2866   1.409       .  A
C2862      C2863   1.400       .  A
C2862      H2867   1.085       .  S
C2863      C2864   1.424       .  A
C2863      C2870   1.444       .  S
C2864      C2865   1.405       .  A
C2865      C2866   1.401       .  A
C2865      H2868   1.080       .  S
C2866      C2869   1.444       .  S
C2869      N2871   1.157       .  T
C2870      N2872   1.157       .  T
C2873      C2874   1.400       .  A
C2873      C2878   1.413       .  A
C2874      C2875   1.395       .  A
C2874      H2879   1.085       .  S
C2875      C2876   1.423       .  A
C2875      C2882   1.446       .  S
C2876      C2877   1.411       .  A
C2877      C2878   1.401       .  A
C2877      H2880   1.077       .  S
C2878      C2881   1.445       .  S
C2881      N2883   1.157   1_545  T
C2882      N2884   1.157       .  T
C2885      C2886   1.411       .  A
C2885      C2890   1.415       .  A
C2886      C2887   1.407       .  A
C2886      H2891   1.084       .  S
C2887      C2888   1.412       .  A
C2887      C2894   1.443       .  S
C2888      C2889   1.406       .  A
C2889      C2890   1.403       .  A
C2889      H2892   1.085       .  S
C2890      C2893   1.443       .  S
C2893      N2895   1.157       .  T
C2894      N2896   1.157       .  T
C2897      C2898   1.403       .  A
C2897      C2902   1.415       .  A
C2898      C2899   1.398       .  A
C2898      H2903   1.085       .  S
C2899      C2900   1.411       .  A
C2899      C2906   1.445       .  S
C2900      C2901   1.404       .  A
C2901      C2902   1.405       .  A
C2901      H2904   1.085       .  S
C2902      C2905   1.444       .  S
C2905      N2907   1.157       .  T
C2906      N2908   1.157       .  T
C2909      C2910   1.413       .  A
C2909      C2914   1.424       .  A
C2910      C2911   1.402       .  A
C2910      H2915   1.077       .  S
C2911      C2912   1.410       .  A
C2911      C2918   1.445       .  S
C2912      C2913   1.402       .  A
C2913      C2914   1.399       .  A
C2913      H2916   1.085       .  S
C2914      C2917   1.446       .  S
C2917      N2919   1.158       .  T
C2918      N2920   1.157       .  T
C2921      C2922   1.403       .  A
C2921      C2926   1.414       .  A
C2922      C2923   1.406       .  A
C2922      H2927   1.085       .  S
C2923      C2924   1.421       .  A
C2923      C2930   1.443       .  S
C2924      C2925   1.405       .  A
C2925      C2926   1.396       .  A
C2925      H2928   1.082       .  S
C2926      C2929   1.445       .  S
C2929      N2931   1.157       .  T
C2930      N2932   1.157       .  T
C2933      C2934   1.407       .  A
C2933      C2938   1.423       .  A
C2934      C2935   1.400       .  A
C2934      H2939   1.078       .  S
C2935      C2936   1.417       .  A
C2935      C2942   1.445       .  S
C2936      C2937   1.400       .  A
C2937      C2938   1.394       .  A
C2937      H2940   1.085       .  S
C2938      C2941   1.447       .  S
C2941      N2943   1.157       .  T
C2942      N2944   1.157       .  T
C2945      C2946   1.409       .  A
C2945      C2950   1.418       .  A
C2946      C2947   1.406       .  A
C2946      H2951   1.084       .  S
C2947      C2948   1.413       .  A
C2947      C2954   1.444       .  S
C2948      C2949   1.401       .  A
C2949      C2950   1.399       .  A
C2949      H2952   1.085       .  S
C2950      C2953   1.441       .  S
C2953      N2955   1.157       .  T
C2954      N2956   1.157   1_655  T
C2957      C2958   1.413       .  A
C2957      C2962   1.427       .  A
C2958      C2959   1.401       .  A
C2958      H2963   1.078       .  S
C2959      C2960   1.409       .  A
C2959      C2966   1.445       .  S
C2960      C2961   1.398       .  A
C2961      C2962   1.401       .  A
C2961      H2964   1.085       .  S
C2962      C2965   1.445       .  S
C2965      N2967   1.158       .  T
C2966      N2968   1.157   1_655  T
C2969      C2970   1.395       .  A
C2969      C2974   1.408       .  A
C2970      C2971   1.399       .  A
C2970      H2975   1.085       .  S
C2971      C2972   1.426       .  A
C2971      C2978   1.444       .  S
C2972      C2973   1.412       .  A
C2973      C2974   1.401       .  A
C2973      H2976   1.076       .  S
C2974      C2977   1.445       .  S
C2977      N2979   1.157       .  T
C2978      N2980   1.157       .  T
C2981      C2982   1.401       .  A
C2981      C2986   1.418       .  A
C2982      C2983   1.398       .  A
C2982      H2987   1.085       .  S
C2983      C2984   1.424       .  A
C2983      C2990   1.446       .  S
C2984      C2985   1.408       .  A
C2985      C2986   1.402       .  A
C2985      H2988   1.078       .  S
C2986      C2989   1.445       .  S
C2989      N2991   1.157       .  T
C2990      N2992   1.157       .  T
C2993      C2994   1.406       .  A
C2993      C2998   1.415       .  A
C2994      C2995   1.404       .  A
C2994      H2999   1.085       .  S
C2995      C2996   1.414       .  A
C2995      C3002   1.445       .  S
C2996      C2997   1.402       .  A
C2997      C2998   1.403       .  A
C2997      H3000   1.083       .  S
C2998      C3001   1.444       .  S
C3001      N3003   1.157       .  T
C3002      N3004   1.157       .  T
C3005      C3006   1.404       .  A
C3005      C3010   1.412       .  A
C3006      C3007   1.403       .  A
C3006      H3011   1.085       .  S
C3007      C3008   1.420       .  A
C3007      C3014   1.441       .  S
C3008      C3009   1.414       .  A
C3009      C3010   1.407       .  A
C3009      H3012   1.083       .  S
C3010      C3013   1.444       .  S
C3013      N3015   1.157       .  T
C3014      N3016   1.157       .  T
C3017      C3018   1.409       .  A
C3017      C3022   1.413       .  A
C3018      C3019   1.402       .  A
C3018      H3023   1.085       .  S
C3019      C3020   1.408       .  A
C3019      C3026   1.443       .  S
C3020      C3021   1.408       .  A
C3021      C3022   1.402       .  A
C3021      H3024   1.085       .  S
C3022      C3025   1.444       .  S
C3025      N3027   1.157       .  T
C3026      N3028   1.157       .  T
C3029      C3030   1.412       .  A
C3029      C3034   1.415       .  A
C3030      C3031   1.402       .  A
C3030      H3035   1.084       .  S
C3031      C3032   1.409       .  A
C3031      C3038   1.443       .  S
C3032      C3033   1.408       .  A
C3033      C3034   1.400       .  A
C3033      H3036   1.084       .  S
C3034      C3037   1.445       .  S
C3037      N3039   1.158       .  T
C3038      N3040   1.157       .  T
C3041      C3042   1.402       .  A
C3041      C3046   1.410       .  A
C3042      C3043   1.399       .  A
C3042      H3047   1.085       .  S
C3043      C3044   1.422       .  A
C3043      C3050   1.443       .  S
C3044      C3045   1.415       .  A
C3045      C3046   1.401       .  A
C3045      H3048   1.080       .  S
C3046      C3049   1.445       .  S
C3049      N3051   1.157       .  T
C3050      N3052   1.157       .  T
C3053      C3054   1.409       .  A
C3053      C3058   1.422       .  A
C3054      C3055   1.399       .  A
C3054      H3059   1.078       .  S
C3055      C3056   1.418       .  A
C3055      C3062   1.446       .  S
C3056      C3057   1.403       .  A
C3057      C3058   1.397       .  A
C3057      H3060   1.085       .  S
C3058      C3061   1.446       .  S
C3061      N3063   1.157       .  T
C3062      N3064   1.157   1_545  T
C3065      C3066   1.413       .  A
C3065      C3070   1.418       .  A
C3066      C3067   1.400       .  A
C3066      H3071   1.084       .  S
C3067      C3068   1.405       .  A
C3067      C3074   1.444       .  S
C3068      C3069   1.402       .  A
C3069      C3070   1.404       .  A
C3069      H3072   1.085       .  S
C3070      C3073   1.443       .  S
C3073      N3075   1.157       .  T
C3074      N3076   1.157       .  T
C3077      C3078   1.406       .  A
C3077      C3082   1.411       .  A
C3078      C3079   1.402       .  A
C3078      H3083   1.085       .  S
C3079      C3080   1.413       .  A
C3079      C3086   1.443       .  S
C3080      C3081   1.410       .  A
C3081      C3082   1.405       .  A
C3081      H3084   1.084       .  S
C3082      C3085   1.444       .  S
C3085      N3087   1.157       .  T
C3086      N3088   1.157       .  T
C3089      C3090   1.403       .  A
C3089      C3094   1.420       .  A
C3090      C3091   1.401       .  A
C3090      H3095   1.084       .  S
C3091      C3092   1.412       .  A
C3091      C3098   1.445       .  S
C3092      C3093   1.393       .  A
C3093      C3094   1.394       .  A
C3093      H3096   1.084       .  S
C3094      C3097   1.446       .  S
C3097      N3099   1.158       .  T
C3098      N3100   1.157       .  T
C3101      C3102   1.398       .  A
C3101      C3106   1.414       .  A
C3102      C3103   1.401       .  A
C3102      H3107   1.085       .  S
C3103      C3104   1.420       .  A
C3103      C3110   1.445       .  S
C3104      C3105   1.403       .  A
C3105      C3106   1.399       .  A
C3105      H3108   1.085       .  S
C3106      C3109   1.445       .  S
C3109      N3111   1.157       .  T
C3110      N3112   1.157       .  T
C3113      C3114   1.411       .  A
C3113      C3118   1.426       .  A
C3114      C3115   1.404       .  A
C3114      H3119   1.078       .  S
C3115      C3116   1.410       .  A
C3115      C3122   1.444   1_455  S
C3116      C3117   1.394       .  A
C3117      C3118   1.395       .  A
C3117      H3120   1.086       .  S
C3118      C3121   1.446       .  S
C3121      N3123   1.157       .  T
C3122      N3124   1.157       .  T
C3125      C3126   1.400       .  A
C3125      C3130   1.415       .  A
C3126      C3127   1.394       .  A
C3126      H3131   1.085       .  S
C3127      C3128   1.422       .  A
C3127      C3134   1.444       .  S
C3128      C3129   1.410       .  A
C3129      C3130   1.403       .  A
C3129      H3132   1.078       .  S
C3130      C3133   1.445   1_655  S
C3133      N3135   1.157       .  T
C3134      N3136   1.157       .  T
C3137      C3138   1.399       .  A
C3137      C3142   1.414       .  A
C3138      C3139   1.403       .  A
C3138      H3143   1.085       .  S
C3139      C3140   1.425       .  A
C3139      C3146   1.442       .  S
C3140      C3141   1.406       .  A
C3141      C3142   1.402       .  A
C3141      H3144   1.079       .  S
C3142      C3145   1.445       .  S
C3145      N3147   1.157       .  T
C3146      N3148   1.157       .  T
C3149      C3150   1.409       .  A
C3149      C3154   1.421       .  A
C3150      C3151   1.401       .  A
C3150      H3155   1.084       .  S
C3151      C3152   1.408       .  A
C3151      C3158   1.444       .  S
C3152      C3153   1.400       .  A
C3153      C3154   1.406       .  A
C3153      H3156   1.085       .  S
C3154      C3157   1.444       .  S
C3157      N3159   1.158       .  T
C3158      N3160   1.157       .  T
C3161      C3162   1.404       .  A
C3161      C3166   1.424       .  A
C3162      C3163   1.401       .  A
C3162      H3167   1.084       .  S
C3163      C3164   1.413       .  A
C3163      C3170   1.445       .  S
C3164      C3165   1.396       .  A
C3165      C3166   1.401       .  A
C3165      H3168   1.085       .  S
C3166      C3169   1.445       .  S
C3169      N3171   1.158       .  T
C3170      N3172   1.157       .  T
C3173      C3174   1.415       .  A
C3173      C3178   1.416       .  A
C3174      C3175   1.404       .  A
C3174      H3179   1.084       .  S
C3175      C3176   1.406       .  A
C3175      C3182   1.443       .  S
C3176      C3177   1.408       .  A
C3177      C3178   1.403       .  A
C3177      H3180   1.085       .  S
C3178      C3181   1.444       .  S
C3181      N3183   1.157       .  T
C3182      N3184   1.157       .  T
C3185      C3186   1.396       .  A
C3185      C3190   1.410       .  A
C3186      C3187   1.398       .  A
C3186      H3191   1.086       .  S
C3187      C3188   1.428       .  A
C3187      C3194   1.442       .  S
C3188      C3189   1.413       .  A
C3189      C3190   1.401       .  A
C3189      H3192   1.080       .  S
C3190      C3193   1.445       .  S
C3193      N3195   1.157       .  T
C3194      N3196   1.157       .  T
C3197      C3198   1.401       .  A
C3197      C3202   1.416       .  A
C3198      C3199   1.398       .  A
C3198      H3203   1.085       .  S
C3199      C3200   1.423       .  A
C3199      C3206   1.446       .  S
C3200      C3201   1.410       .  A
C3201      C3202   1.405       .  A
C3201      H3204   1.078       .  S
C3202      C3205   1.445       .  S
C3205      N3207   1.158       .  T
C3206      N3208   1.157       .  T
C3209      C3210   1.398       .  A
C3209      C3214   1.411       .  A
C3210      C3211   1.404       .  A
C3210      H3215   1.084       .  S
C3211      C3212   1.424       .  A
C3211      C3218   1.445       .  S
C3212      C3213   1.410       .  A
C3213      C3214   1.406       .  A
C3213      H3216   1.084       .  S
C3214      C3217   1.444       .  S
C3217      N3219   1.157       .  T
C3218      N3220   1.158       .  T
C3221      C3222   1.400       .  A
C3221      C3226   1.416       .  A
C3222      C3223   1.405       .  A
C3222      H3227   1.085       .  S
C3223      C3224   1.424       .  A
C3223      C3230   1.441       .  S
C3224      C3225   1.408       .  A
C3225      C3226   1.405       .  A
C3225      H3228   1.083       .  S
C3226      C3229   1.445       .  S
C3229      N3231   1.158       .  T
C3230      N3232   1.157       .  T
C3233      C3234   1.402       .  A
C3233      C3238   1.405       .  A
C3234      C3235   1.407       .  A
C3234      H3239   1.085       .  S
C3235      C3236   1.418       .  A
C3235      C3242   1.442       .  S
C3236      C3237   1.410       .  A
C3237      C3238   1.397       .  A
C3237      H3240   1.084       .  S
C3238      C3241   1.445       .  S
C3241      N3243   1.157       .  T
C3242      N3244   1.157       .  T
C3245      C3246   1.397       .  A
C3245      C3250   1.414       .  A
C3246      C3247   1.401       .  A
C3246      H3251   1.085       .  S
C3247      C3248   1.421       .  A
C3247      C3254   1.445       .  S
C3248      C3249   1.402       .  A
C3249      C3250   1.398       .  A
C3249      H3252   1.085       .  S
C3250      C3253   1.445       .  S
C3253      N3255   1.157       .  T
C3254      N3256   1.158       .  T
C3257      C3258   1.403       .  A
C3257      C3262   1.413       .  A
C3258      C3259   1.396       .  A
C3258      H3263   1.085       .  S
C3259      C3260   1.421       .  A
C3259      C3266   1.443       .  S
C3260      C3261   1.415       .  A
C3261      C3262   1.404       .  A
C3261      H3264   1.078       .  S
C3262      C3265   1.444       .  S
C3265      N3267   1.157       .  T
C3266      N3268   1.157       .  T
C3269      C3270   1.399       .  A
C3269      C3274   1.408       .  A
C3270      C3271   1.392       .  A
C3270      H3275   1.085       .  S
C3271      C3272   1.422       .  A
C3271      C3278   1.447       .  S
C3272      C3273   1.412       .  A
C3273      C3274   1.400       .  A
C3273      H3276   1.077       .  S
C3274      C3277   1.445       .  S
C3277      N3279   1.157       .  T
C3278      N3280   1.157       .  T
C3281      C3282   1.401       .  A
C3281      C3286   1.409       .  A
C3282      C3283   1.404       .  A
C3282      H3287   1.085       .  S
C3283      C3284   1.419       .  A
C3283      C3290   1.440       .  S
C3284      C3285   1.412       .  A
C3285      C3286   1.405       .  A
C3285      H3288   1.084       .  S
C3286      C3289   1.444       .  S
C3289      N3291   1.157       .  T
C3290      N3292   1.157       .  T
C3293      C3294   1.405       .  A
C3293      C3298   1.410       .  A
C3294      C3295   1.404       .  A
C3294      H3299   1.085       .  S
C3295      C3296   1.411       .  A
C3295      C3302   1.444       .  S
C3296      C3297   1.405       .  A
C3297      C3298   1.405       .  A
C3297      H3300   1.085       .  S
C3298      C3301   1.442       .  S
C3301      N3303   1.157       .  T
C3302      N3304   1.157       .  T
C3305      C3306   1.400       .  A
C3305      C3310   1.416       .  A
C3306      C3307   1.400       .  A
C3306      H3311   1.085       .  S
C3307      C3308   1.421       .  A
C3307      C3314   1.445       .  S
C3308      C3309   1.402       .  A
C3309      C3310   1.395       .  A
C3309      H3312   1.085       .  S
C3310      C3313   1.443       .  S
C3313      N3315   1.157       .  T
C3314      N3316   1.157       .  T
C3317      C3318   1.399       .  A
C3317      C3322   1.413       .  A
C3318      C3319   1.402       .  A
C3318      H3323   1.085       .  S
C3319      C3320   1.419       .  A
C3319      C3326   1.445       .  S
C3320      C3321   1.401       .  A
C3321      C3322   1.398       .  A
C3321      H3324   1.085       .  S
C3322      C3325   1.443       .  S
C3325      N3327   1.157       .  T
C3326      N3328   1.158       .  T
C3329      C3330   1.412       .  A
C3329      C3334   1.422       .  A
C3330      C3331   1.401       .  A
C3330      H3335   1.077       .  S
C3331      C3332   1.414       .  A
C3331      C3338   1.445       .  S
C3332      C3333   1.403       .  A
C3333      C3334   1.397       .  A
C3333      H3336   1.085       .  S
C3334      C3337   1.445       .  S
C3337      N3339   1.157       .  T
C3338      N3340   1.157       .  T
C3341      C3342   1.407       .  A
C3341      C3346   1.425       .  A
C3342      C3343   1.403       .  A
C3342      H3347   1.078       .  S
C3343      C3344   1.418       .  A
C3343      C3350   1.445       .  S
C3344      C3345   1.400       .  A
C3345      C3346   1.398       .  A
C3345      H3348   1.085       .  S
C3346      C3349   1.447       .  S
C3349      N3351   1.157       .  T
C3350      N3352   1.157       .  T
C3353      C3354   1.402       .  A
C3353      C3358   1.409       .  A
C3354      C3355   1.401       .  A
C3354      H3359   1.085       .  S
C3355      C3356   1.417       .  A
C3355      C3362   1.445       .  S
C3356      C3357   1.407       .  A
C3357      C3358   1.403       .  A
C3357      H3360   1.085       .  S
C3358      C3361   1.442       .  S
C3361      N3363   1.157       .  T
C3362      N3364   1.157       .  T
C3365      C3366   1.403       .  A
C3365      C3370   1.413       .  A
C3366      C3367   1.402       .  A
C3366      H3371   1.084       .  S
C3367      C3368   1.416       .  A
C3367      C3374   1.444       .  S
C3368      C3369   1.402       .  A
C3369      C3370   1.401       .  A
C3369      H3372   1.071       .  S
C3370      C3373   1.446       .  S
C3373      N3375   1.157       .  T
C3374      N3376   1.157       .  T
C3377      C3378   1.408       .  A
C3377      C3382   1.410       .  A
C3378      C3379   1.401       .  A
C3378      H3383   1.085       .  S
C3379      C3380   1.408       .  A
C3379      C3386   1.443       .  S
C3380      C3381   1.409       .  A
C3381      C3382   1.400       .  A
C3381      H3384   1.084       .  S
C3382      C3385   1.444       .  S
C3385      N3387   1.157       .  T
C3386      N3388   1.157       .  T
C3389      C3390   1.405       .  A
C3389      C3394   1.407       .  A
C3390      C3391   1.399       .  A
C3390      H3395   1.085       .  S
C3391      C3392   1.415       .  A
C3391      C3398   1.444       .  S
C3392      C3393   1.412       .  A
C3393      C3394   1.402       .  A
C3393      H3396   1.084       .  S
C3394      C3397   1.444       .  S
C3397      N3399   1.157       .  T
C3398      N3400   1.157       .  T
C3401      C3402   1.413       .  A
C3401      C3406   1.422       .  A
C3402      C3403   1.402       .  A
C3402      H3407   1.077       .  S
C3403      C3404   1.410       .  A
C3403      C3410   1.445       .  S
C3404      C3405   1.400       .  A
C3405      C3406   1.394       .  A
C3405      H3408   1.085       .  S
C3406      C3409   1.446       .  S
C3409      N3411   1.157       .  T
C3410      N3412   1.157       .  T
C3413      C3414   1.412       .  A
C3413      C3418   1.425       .  A
C3414      C3415   1.398       .  A
C3414      H3419   1.078       .  S
C3415      C3416   1.407       .  A
C3415      C3422   1.445       .  S
C3416      C3417   1.397       .  A
C3417      C3418   1.398       .  A
C3417      H3420   1.085       .  S
C3418      C3421   1.445       .  S
C3421      N3423   1.158       .  T
C3422      N3424   1.157       .  T
C3425      C3426   1.408       .  A
C3425      C3430   1.413       .  A
C3426      C3427   1.404       .  A
C3426      H3431   1.085       .  S
C3427      C3428   1.412       .  A
C3427      C3434   1.444       .  S
C3428      C3429   1.405       .  A
C3429      C3430   1.405       .  A
C3429      H3432   1.085       .  S
C3430      C3433   1.442       .  S
C3433      N3435   1.157       .  T
C3434      N3436   1.157       .  T
C3437      C3438   1.409       .  A
C3437      C3442   1.412       .  A
C3438      C3439   1.403       .  A
C3438      H3443   1.084       .  S
C3439      C3440   1.410       .  A
C3439      C3446   1.444       .  S
C3440      C3441   1.404       .  A
C3441      C3442   1.401       .  A
C3441      H3444   1.085       .  S
C3442      C3445   1.443       .  S
C3445      N3447   1.157       .  T
C3446      N3448   1.157       .  T
C3449      C3450   1.399       .  A
C3449      C3454   1.415       .  A
C3450      C3451   1.401       .  A
C3450      H3455   1.085       .  S
C3451      C3452   1.419       .  A
C3451      C3458   1.445       .  S
C3452      C3453   1.401       .  A
C3453      C3454   1.398       .  A
C3453      H3456   1.085       .  S
C3454      C3457   1.444       .  S
C3457      N3459   1.157       .  T
C3458      N3460   1.158       .  T
C3461      C3462   1.411       .  A
C3461      C3466   1.415       .  A
C3462      C3463   1.398       .  A
C3462      H3467   1.084       .  S
C3463      C3464   1.404       .  A
C3463      C3470   1.444       .  S
C3464      C3465   1.405       .  A
C3465      C3466   1.402       .  A
C3465      H3468   1.085       .  S
C3466      C3469   1.444       .  S
C3469      N3471   1.157       .  T
C3470      N3472   1.157       .  T
C3473      C3474   1.404       .  A
C3473      C3478   1.414       .  A
C3474      C3475   1.398       .  A
C3474      H3479   1.085       .  S
C3475      C3476   1.422       .  A
C3475      C3482   1.446       .  S
C3476      C3477   1.412       .  A
C3477      C3478   1.403       .  A
C3477      H3480   1.078       .  S
C3478      C3481   1.445       .  S
C3481      N3483   1.157       .  T
C3482      N3484   1.158       .  T
C3485      C3486   1.401       .  A
C3485      C3490   1.419       .  A
C3486      C3487   1.398       .  A
C3486      H3491   1.085       .  S
C3487      C3488   1.424       .  A
C3487      C3494   1.446       .  S
C3488      C3489   1.407       .  A
C3489      C3490   1.402       .  A
C3489      H3492   1.078       .  S
C3490      C3493   1.446   1_556  S
C3493      N3495   1.158       .  T
C3494      N3496   1.157       .  T
C3497      C3498   1.403       .  A
C3497      C3502   1.415       .  A
C3498      C3499   1.402       .  A
C3498      H3503   1.085       .  S
C3499      C3500   1.417       .  A
C3499      C3506   1.444       .  S
C3500      C3501   1.403       .  A
C3501      C3502   1.402       .  A
C3501      H3504   1.085       .  S
C3502      C3505   1.445       .  S
C3505      N3507   1.157       .  T
C3506      N3508   1.157       .  T
C3509      C3510   1.402       .  A
C3509      C3514   1.411       .  A
C3510      C3511   1.402       .  A
C3510      H3515   1.085       .  S
C3511      C3512   1.415       .  A
C3511      C3518   1.441       .  S
C3512      C3513   1.408       .  A
C3513      C3514   1.402       .  A
C3513      H3516   1.085       .  S
C3514      C3517   1.444       .  S
C3517      N3519   1.157       .  T
C3518      N3520   1.157       .  T
C3521      C3522   1.407       .  A
C3521      C3526   1.414       .  A
C3522      C3523   1.410       .  A
C3522      H3527   1.084       .  S
C3523      C3524   1.413       .  A
C3523      C3530   1.442       .  S
C3524      C3525   1.403       .  A
C3525      C3526   1.394       .  A
C3525      H3528   1.085       .  S
C3526      C3529   1.446       .  S
C3529      N3531   1.157       .  T
C3530      N3532   1.157       .  T
C3533      C3534   1.413       .  A
C3533      C3538   1.414       .  A
C3534      C3535   1.399       .  A
C3534      H3539   1.084       .  S
C3535      C3536   1.405       .  A
C3535      C3542   1.443       .  S
C3536      C3537   1.408       .  A
C3537      C3538   1.401       .  A
C3537      H3540   1.085       .  S
C3538      C3541   1.444       .  S
C3541      N3543   1.157       .  T
C3542      N3544   1.157       .  T
C3545      C3546   1.396       .  A
C3545      C3550   1.407       .  A
C3546      C3547   1.398       .  A
C3546      H3551   1.086       .  S
C3547      C3548   1.426       .  A
C3547      C3554   1.440       .  S
C3548      C3549   1.415       .  A
C3549      C3550   1.397       .  A
C3549      H3552   1.080       .  S
C3550      C3553   1.445       .  S
C3553      N3555   1.157       .  T
C3554      N3556   1.157       .  T
C3557      C3558   1.402       .  A
C3557      C3562   1.414       .  A
C3558      C3559   1.399       .  A
C3558      H3563   1.085       .  S
C3559      C3560   1.423       .  A
C3559      C3566   1.446       .  S
C3560      C3561   1.409       .  A
C3561      C3562   1.401       .  A
C3561      H3564   1.077       .  S
C3562      C3565   1.445       .  S
C3565      N3567   1.157       .  T
C3566      N3568   1.157       .  T
C3569      C3570   1.412       .  A
C3569      C3574   1.418       .  A
C3570      C3571   1.407       .  A
C3570      H3575   1.084       .  S
C3571      C3572   1.411       .  A
C3571      C3578   1.444       .  S
C3572      C3573   1.404       .  A
C3573      C3574   1.403       .  A
C3573      H3576   1.085       .  S
C3574      C3577   1.442       .  S
C3577      N3579   1.157       .  T
C3578      N3580   1.157       .  T
C3581      C3582   1.407       .  A
C3581      C3586   1.411       .  A
C3582      C3583   1.404       .  A
C3582      H3587   1.085       .  S
C3583      C3584   1.414       .  A
C3583      C3590   1.444       .  S
C3584      C3585   1.405       .  A
C3585      C3586   1.403       .  A
C3585      H3588   1.085       .  S
C3586      C3589   1.441       .  S
C3589      N3591   1.157       .  T
C3590      N3592   1.157       .  T
C3593      C3594   1.403       .  A
C3593      C3598   1.421       .  A
C3594      C3595   1.400       .  A
C3594      H3599   1.084       .  S
C3595      C3596   1.412       .  A
C3595      C3602   1.443       .  S
C3596      C3597   1.397       .  A
C3597      C3598   1.400       .  A
C3597      H3600   1.083       .  S
C3598      C3601   1.445       .  S
C3601      N3603   1.158       .  T
C3602      N3604   1.157       .  T
C3605      C3606   1.400       .  A
C3605      C3610   1.410       .  A
C3606      C3607   1.394       .  A
C3606      H3611   1.085       .  S
C3607      C3608   1.410       .  A
C3607      C3614   1.445       .  S
C3608      C3609   1.404       .  A
C3609      C3610   1.406       .  A
C3609      H3612   1.085       .  S
C3610      C3613   1.443       .  S
C3613      N3615   1.157       .  T
C3614      N3616   1.157       .  T
