geometry optimzed in LAMMPS
_audit_creation_date              2020-11-30 
_audit_creation_method            'lammps2cif' 
_symmetry_space_group_name_H-M    'P1' 
_symmetry_Int_Tables_number       1 
_symmetry_cell_setting            triclinic 
loop_ 
_symmetry_equiv_pos_as_xyz 
  x,y,z 
_cell_length_a                    33.01227366 
_cell_length_b                    45.06979511143562 
_cell_length_c                    26.02467965114105 
_cell_angle_alpha                 89.9913742710626 
_cell_angle_beta                  90.11340973087488 
_cell_angle_gamma                 89.8193976249639 
loop_ 
_atom_site_label 
_atom_site_type_symbol 
_atom_site_fract_x 
_atom_site_fract_y 
_atom_site_fract_z 
_atom_site_charge 
C1          C  0.74354531  0.10983266  0.68403272     0.02100
C2          C  0.74402134  0.14107755  0.68368420     0.02100
C3          C  0.77209429  0.15643323  0.71365146    -0.18400
C4          C  0.79969829  0.14089406  0.74428763     0.02100
C5          C  0.79933295  0.10957463  0.74461069     0.02100
C6          C  0.77097945  0.09422236  0.71486239    -0.18400
H7          H  0.77073229  0.07016539  0.71500766     0.04100
H8          H  0.77244391  0.18048731  0.71314862     0.04100
Zr9        Zr  0.52567836  0.29395155  0.38874274     2.17500
O10         O  0.52615211  0.30533518  0.29718109    -0.51500
O11         O  0.52678657  0.34551488  0.41655673    -0.74700
O12         O  0.46054850  0.30979430  0.35614947    -0.81500
O13         O  0.63928401  0.28194492  0.39301317    -0.83200
O14         O  0.41087468  0.28383815  0.39615641    -0.78800
O15         O  0.58975983  0.30669564  0.34967641    -0.90500
O16         O  0.52585282  0.34591864  0.50384891    -0.76400
O17         O  0.48301683  0.29528658  0.46217996    -0.85900
O18         O  0.56986650  0.29427157  0.46104985    -0.85600
O19         O  0.48448465  0.25029839  0.38218115    -0.72400
O20         O  0.56474611  0.24922161  0.38140583    -0.84500
Zr21       Zr  0.52552096  0.20671258  0.52498096     2.26400
Zr22       Zr  0.44320242  0.25116541  0.45772282     2.06300
Zr23       Zr  0.60792174  0.24921759  0.45514992     2.10000
Zr24       Zr  0.52713280  0.29501142  0.53434474     1.78800
O25         O  0.65422366  0.21810862  0.40613881    -0.93300
O26         O  0.46922718  0.31734023  0.57767887    -0.41100
O27         O  0.56655753  0.25037213  0.53039828    -0.77800
O28         O  0.48603840  0.25131243  0.53200461    -0.96400
O29         O  0.48149556  0.20633536  0.45267016    -0.89700
O30         O  0.56768527  0.20548786  0.45100801    -0.92600
C31         C  0.52619967  0.35898243  0.46003817     1.01200
C32         C  0.62698435  0.30017831  0.35839055     1.14100
C33         C  0.42336318  0.30291730  0.36330739     1.04900
O34         O  0.39430758  0.28048463  0.50593663    -0.94700
O35         O  0.41109837  0.21794575  0.51820608    -0.90500
O36         O  0.46009068  0.19054076  0.55688470    -0.83600
C37         C  0.42286580  0.19787970  0.54996524     1.11500
O38         O  0.51989259  0.21248444  0.28602928    -0.96700
Zr39       Zr  0.52345787  0.20556224  0.37889656     1.88900
O40         O  0.52486722  0.15516604  0.49765599    -0.73400
O41         O  0.39199767  0.22205419  0.41294074    -0.52600
O42         O  0.46083566  0.18509156  0.34424077    -0.97300
O43         O  0.57994726  0.18242723  0.33373811    -0.54500
O44         O  0.52358408  0.15479509  0.41021031    -0.73900
C45         C  0.52423870  0.14176926  0.45410366     0.98500
O46         O  0.52736242  0.19987170  0.61804709    -0.62700
O47         O  0.66193681  0.27472432  0.50114076    -0.57500
O48         O  0.59083441  0.19088598  0.55824236    -0.94200
O49         O  0.64008987  0.21711137  0.51772473    -0.92600
O50         O  0.58719096  0.31659471  0.57370222    -0.93000
O51         O  0.52900880  0.28896957  0.62732666    -0.91700
C52         C  0.62802610  0.19797629  0.55075288     1.17300
H53         H  0.58755173  0.31130456  0.46062505     0.33300
H54         H  0.46982974  0.25071720  0.56284771     0.44100
H55         H  0.58486088  0.18808831  0.45090961     0.37600
H56         H  0.46785689  0.25114731  0.35159688     0.34100
H57         H  0.48018398  0.33528894  0.59460652     0.25900
H58         H  0.36584546  0.23104822  0.42326529     0.31800
H59         H  0.46767517  0.16447471  0.33431509     0.37700
H60         H  0.57906267  0.33705395  0.58307127     0.32200
H61         H  0.68695749  0.26957282  0.48216231     0.31100
H62         H  0.68041589  0.22872410  0.40729819     0.32800
H63         H  0.59269014  0.16896134  0.35915220     0.31700
H64         H  0.52013763  0.26829882  0.63331127     0.35700
H65         H  0.54884296  0.21341992  0.63038904     0.28500
H66         H  0.51595965  0.32594138  0.29390338     0.32700
H67         H  0.51749635  0.19231225  0.27127784     0.35500
H68         H  0.65756483  0.29606758  0.49397692     0.28200
H69         H  0.50211957  0.20906403  0.63107105     0.41000
H70         H  0.40370610  0.27937878  0.54203047     0.31100
H71         H  0.45196099  0.32514658  0.54958677     0.38700
H72         H  0.59985312  0.19859822  0.32919277     0.30600
H73         H  0.39495206  0.22722652  0.37616810     0.30600
H74         H  0.50498951  0.29270077  0.28147741     0.30900
Zr75       Zr  0.52156049  0.04413832  0.52509160     2.17500
O76         O  0.50983886  0.05722346  0.61451515    -0.51500
O77         O  0.52191976  0.09565407  0.49737062    -0.74700
O78         O  0.58565018  0.05807706  0.56531231    -0.81500
O79         O  0.40762040  0.03407439  0.50768956    -0.83200
O80         O  0.63660409  0.03417034  0.52360554    -0.78800
O81         O  0.45505431  0.05620208  0.55832556    -0.90500
O82         O  0.52730871  0.09617860  0.41034913    -0.76400
O83         O  0.56765136  0.04517083  0.45497973    -0.85900
O84         O  0.48120788  0.04506313  0.44927544    -0.85600
O85         O  0.56132314  0.49997123  0.53515246    -0.72400
O86         O  0.48138992  0.49986601  0.52822684    -0.84500
Zr87       Zr  0.52736172  0.45675348  0.38877304     2.26400
Zr88       Zr  0.60621937  0.00034750  0.46273677     2.06300
Zr89       Zr  0.44246093  0.00051576  0.45047989     2.10000
Zr90       Zr  0.52705241  0.04546879  0.37941788     1.78800
O91         O  0.38763227  0.47505500  0.49524578    -0.93300
O92         O  0.58707716  0.06680240  0.33966909    -0.41100
O93         O  0.48750047  0.00093120  0.37875910    -0.77800
O94         O  0.56723601  0.00131102  0.38514218    -0.96400
O95         O  0.56764740  0.45585766  0.46472958    -0.89700
O96         O  0.48132916  0.45615445  0.45894484    -0.92600
C97         C  0.52451437  0.10914126  0.45406579     1.01200
C98         C  0.41837921  0.05094399  0.54486542     1.14100
C99         C  0.62331849  0.05212593  0.55792344     1.04900
O100        O  0.66279708  0.02560190  0.42212370    -0.94700
O101        O  0.64070377  0.46958789  0.40095665    -0.90500
O102        O  0.59380692  0.44175947  0.35904007    -0.83600
C103        C  0.63036686  0.44997722  0.36776084     1.11500
O104        O  0.51687334  0.46335028  0.62721281    -0.96700
Zr105      Zr  0.52148796  0.45564889  0.53465419     1.88900
O106        O  0.52680671  0.40516155  0.41654340    -0.73400
O107        O  0.65085514  0.47043390  0.51617011    -0.52600
O108        O  0.57952123  0.43452581  0.57985336    -0.97300
O109        O  0.46113821  0.43278200  0.57106642    -0.54500
O110        O  0.52433464  0.40475290  0.50386785    -0.73900
C111        C  0.52581333  0.39170110  0.46004300     0.98500
O112        O  0.53388395  0.44731329  0.29655742    -0.62700
O113        O  0.39672261  0.02664722  0.39237684    -0.57500
O114        O  0.46335064  0.44117447  0.35162654    -0.94200
O115        O  0.41219811  0.46618698  0.39114572    -0.92600
O116        O  0.46877852  0.06991564  0.34028030    -0.93000
O117        O  0.52579768  0.03967794  0.28636381    -0.91700
C118        C  0.42578861  0.44735922  0.35858645     1.17300
H119        H  0.46370300  0.06229394  0.44842884     0.33300
H120        H  0.58492857  0.00090577  0.35564440     0.44100
H121        H  0.46398607  0.43894361  0.45773426     0.37600
H122        H  0.57642794  0.50059027  0.56699987     0.34100
H123        H  0.57656790  0.08250340  0.31655304     0.25900
H124        H  0.67724330  0.48078322  0.51487720     0.31800
H125        H  0.57302699  0.41325416  0.58431662     0.37700
H126        H  0.47979281  0.08819444  0.32455681     0.32200
H127        H  0.36923021  0.02145270  0.40448860     0.31100
H128        H  0.36257848  0.48216680  0.47818880     0.32800
H129        H  0.45190193  0.41824725  0.54508515     0.31700
H130        H  0.53849278  0.02008847  0.28007089     0.35700
H131        H  0.50814587  0.45379007  0.28049879     0.28500
H132        H  0.52683977  0.07482136  0.62149592     0.32700
H133        H  0.51598883  0.44326020  0.64257304     0.35500
H134        H  0.39980485  0.04787749  0.40115694     0.28200
H135        H  0.55366152  0.46215904  0.28420282     0.41000
H136        H  0.65096489  0.04412670  0.40816721     0.31100
H137        H  0.60062199  0.07783465  0.36771238     0.38700
H138        H  0.44034420  0.44865365  0.57024813     0.30600
H139        H  0.64128159  0.47355958  0.55178024     0.30600
H140        H  0.52221528  0.04073944  0.63420982     0.30900
C141        C  0.29649836  0.13924455  0.66632252     0.02100
C142        C  0.29566366  0.10787911  0.66568258     0.02100
C143        C  0.26686674  0.09264153  0.69463571    -0.18400
C144        C  0.23910665  0.10819529  0.72475065     0.02100
C145        C  0.23939983  0.13948550  0.72498892     0.02100
C146        C  0.26812179  0.15479748  0.69586865    -0.18400
H147        H  0.26886313  0.17883755  0.69698323     0.04100
H148        H  0.26652571  0.06857981  0.69442652     0.04100
Zr149      Zr  0.02426609  0.20671236  0.88982650     2.17500
O150        O  0.02073308  0.19628951  0.79801370    -0.51500
O151        O  0.02494413  0.15468009  0.91507386    -0.74700
O152        O  0.08923217  0.19234340  0.85354928    -0.81500
O153        O  0.90996845  0.21715815  0.90142696    -0.83200
O154        O  0.13927587  0.21929670  0.89063316    -0.78800
O155        O  0.95868511  0.19438684  0.85363307    -0.90500
O156        O  0.03023723  0.15354757  0.00210345    -0.76400
O157        O  0.07072829  0.20580967  0.95984739    -0.85900
O158        O  0.98391413  0.20392909  0.96549327    -0.85600
O159        O  0.06199221  0.25196067  0.88176933    -0.72400
O160        O  0.98179730  0.25004713  0.88857740    -0.84500
Zr161      Zr  0.02657422  0.29194750  0.02946048     2.26400
Zr162      Zr  0.10746298  0.25129833  0.95351327     2.06300
Zr163      Zr  0.94279424  0.24768878  0.96584533     2.10000
Zr164      Zr  0.03027205  0.20369183  0.03526709     1.78800
O165        O  0.88928121  0.27765656  0.92733480    -0.93300
O166        O  0.08918454  0.18004600  0.07454762    -0.41100
O167        O  0.98834771  0.24706573  0.03711511    -0.77800
O168        O  0.06884211  0.24852359  0.03097248    -0.96400
O169        O  0.06619903  0.29469050  0.95364546    -0.89700
O170        O  0.97976649  0.29289687  0.96000074    -0.92600
C171        C  0.02758844  0.14088427  0.95813031     1.01200
C172        C  0.92160481  0.20033837  0.86443581     1.14100
C173        C  0.12655995  0.19967569  0.85885093     1.04900
O174        O  0.16336367  0.22578699  0.99595997    -0.94700
O175        O  0.14009124  0.28403983  0.01437837    -0.90500
O176        O  0.09174859  0.30945930  0.05784060    -0.83600
C177        C  0.12876469  0.30298302  0.04829603     1.11500
O178        O  0.01752676  0.28984257  0.79118403    -0.96700
Zr179      Zr  0.01952595  0.29523048  0.88432245     1.88900
O180        O  0.02602600  0.34427639  0.00531956    -0.73400
O181        O  0.15151866  0.28333838  0.90320053    -0.52600
O182        O  0.07368726  0.32212565  0.84140018    -0.97300
O183        O  0.95679726  0.31614088  0.85016371    -0.54500
O184        O  0.02092353  0.34534788  0.91816467    -0.73900
C185        C  0.02387050  0.35807315  0.96212111     0.98500
O186        O  0.02986738  0.29377239  0.12297949    -0.62700
O187        O  0.89461110  0.21734645  0.01325692    -0.57500
O188        O  0.96332000  0.30754342  0.06742130    -0.94200
O189        O  0.91422624  0.27818893  0.03379294    -0.92600
O190        O  0.97192163  0.18178194  0.07774931    -0.93000
O191        O  0.03417654  0.20776807  0.12850240    -0.91700
C192        C  0.92654572  0.29864253  0.06445919     1.17300
H193        H  0.96719647  0.18640454  0.96551982     0.33300
H194        H  0.08668110  0.24910347  0.06039979     0.44100
H195        H  0.96177450  0.30978566  0.96236021     0.37600
H196        H  0.07697278  0.25200847  0.84983817     0.34100
H197        H  0.07921559  0.16065832  0.08713083     0.25900
H198        H  0.17868364  0.27409045  0.90594202     0.31800
H199        H  0.09213680  0.32842881  0.86935641     0.37700
H200        H  0.98089789  0.16157073  0.08754893     0.32200
H201        H  0.86789762  0.22230588  0.99810715     0.31100
H202        H  0.86395009  0.27023679  0.94298541     0.32800
H203        H  0.94789514  0.33099489  0.87582183     0.31700
H204        H  0.04886366  0.22651315  0.13496082     0.35700
H205        H  0.00871763  0.27979023  0.13468107     0.28500
H206        H  0.03174675  0.17599059  0.79357063     0.32700
H207        H  0.01310957  0.31011662  0.77755309     0.35500
H208        H  0.89990710  0.19670914  0.00206805     0.28200
H209        H  0.05555688  0.28373398  0.13233668     0.41000
H210        H  0.15441699  0.22326356  0.03197857     0.31100
H211        H  0.10709471  0.17496531  0.04535953     0.38700
H212        H  0.93680415  0.29990745  0.85293474     0.30600
H213        H  0.14329942  0.28008711  0.86703979     0.30600
H214        H  0.04079141  0.20957946  0.78170382     0.30900
Zr215      Zr  0.02340290  0.04269803  0.88902816     2.17500
O216        O  0.02126430  0.05456636  0.79767613    -0.51500
O217        O  0.02540279  0.09458936  0.91487105    -0.74700
O218        O  0.95632610  0.05773749  0.86058903    -0.81500
O219        O  0.13787660  0.03076412  0.88856606    -0.83200
O220        O  0.90868284  0.03159513  0.90366001    -0.78800
O221        O  0.08673905  0.05475208  0.84688406    -0.90500
O222        O  0.02827291  0.09546645  0.00209430    -0.76400
O223        O  0.98251230  0.04382541  0.96405570    -0.85900
O224        O  0.06891667  0.04475021  0.95982808    -0.85600
O225        O  0.98450798  0.49759144  0.88509576    -0.72400
O226        O  0.06430263  0.49846207  0.88250079    -0.84500
Zr227      Zr  0.02938578  0.45671735  0.02933916     2.26400
Zr228      Zr  0.94455867  0.49869201  0.96181106     2.06300
Zr229      Zr  0.10847792  0.50070232  0.95515090     2.10000
Zr230      Zr  0.02806674  0.04515002  0.03479336     1.78800
O231        O  0.16189806  0.47549359  0.90761200    -0.93300
O232        O  0.97083539  0.06964547  0.07605311    -0.41100
O233        O  0.06873108  0.00111988  0.03184630    -0.77800
O234        O  0.98824383  0.00081961  0.03516436    -0.96400
O235        O  0.98449077  0.45453991  0.95788983    -0.89700
O236        O  0.07050971  0.45569912  0.95421858    -0.92600
C237        C  0.02708855  0.10825625  0.95809065     1.01200
C238        C  0.12424601  0.04818600  0.85361069     1.14100
C239        C  0.91939801  0.05084820  0.87019349     1.04900
O240        O  0.89515922  0.02617724  0.01355465    -0.94700
O241        O  0.91475360  0.46444650  0.02226812    -0.90500
O242        O  0.96536373  0.44150023  0.06682890    -0.83600
C243        C  0.92788416  0.44676138  0.05715730     1.11500
O244        O  0.02542295  0.45813690  0.78993370    -0.96700
Zr245      Zr  0.02552785  0.45360262  0.88328351     1.88900
O246        O  0.02743732  0.40459715  0.00487596    -0.73400
O247        O  0.89318030  0.47004107  0.91650041    -0.52600
O248        O  0.96477751  0.43178653  0.84606060    -0.97300
O249        O  0.08371719  0.42911316  0.84377939    -0.54500
O250        O  0.02394459  0.40347574  0.91763451    -0.73900
C251        C  0.02510279  0.39078668  0.96181918     0.98500
O252        O  0.03488962  0.44890171  0.12212400    -0.62700
O253        O  0.15356261  0.03265356  0.00341615    -0.57500
O254        O  0.09641147  0.44246044  0.05860920    -0.94200
O255        O  0.14380036  0.46747386  0.01224907    -0.92600
O256        O  0.08929984  0.06544479  0.07339344    -0.93000
O257        O  0.02899923  0.04072276  0.12809997    -0.91700
C258        C  0.13306187  0.44888170  0.04676969     1.17300
H259        H  0.08626129  0.06194450  0.95819926     0.33300
H260        H  0.97243647  0.00041005  0.06635490     0.44100
H261        H  0.08835457  0.43866361  0.95413449     0.37600
H262        H  0.96723495  0.49769153  0.85508371     0.34100
H263        H  0.98210939  0.08823352  0.09036998     0.25900
H264        H  0.86718264  0.47983859  0.92515681     0.31800
H265        H  0.95099440  0.42194833  0.87517968     0.37700
H266        H  0.08544128  0.08723298  0.07286643     0.32200
H267        H  0.15607876  0.02333728  0.03773664     0.31100
H268        H  0.18743530  0.48233664  0.92365673     0.32800
H269        H  0.09150539  0.41293016  0.86758963     0.31700
H270        H  0.00964682  0.02463724  0.13606812     0.35700
H271        H  0.05658840  0.46249040  0.13368493     0.28500
H272        H  0.01073987  0.07512845  0.79543640     0.32700
H273        H  0.02315165  0.43760508  0.77670729     0.35500
H274        H  0.18044647  0.02979493  0.98734784     0.28200
H275        H  0.01008898  0.45757746  0.13736114     0.41000
H276        H  0.90710198  0.02692895  0.04844557     0.31100
H277        H  0.95326375  0.07625801  0.04735206     0.38700
H278        H  0.10598709  0.44367561  0.84670386     0.30600
H279        H  0.89734454  0.47440875  0.87960300     0.30600
H280        H  0.99966852  0.04196404  0.78288462     0.30900
C281        C  0.31016627  0.35888772  0.22684435     0.02100
C282        C  0.31113760  0.39011774  0.22593138     0.02100
C283        C  0.28425242  0.40572797  0.19462740    -0.18400
C284        C  0.25605453  0.39041182  0.16482474     0.02100
C285        C  0.25535086  0.35910729  0.16549159     0.02100
C286        C  0.28262572  0.34349584  0.19631050    -0.18400
H287        H  0.28174282  0.31945327  0.19753554     0.04100
H288        H  0.28466125  0.42978504  0.19430851     0.04100
C289        C  0.75089770  0.39327244  0.24273956     0.02100
C290        C  0.74919267  0.36206170  0.24330074     0.02100
C291        C  0.77640967  0.34556624  0.21393668    -0.18400
C292        C  0.80545806  0.35988257  0.18409565     0.02100
C293        C  0.80718902  0.39117990  0.18341023     0.02100
C294        C  0.77991670  0.40769479  0.21294811    -0.18400
H295        H  0.78099113  0.43173583  0.21229652     0.04100
H296        H  0.77522858  0.32152535  0.21470736     0.04100
C297        C  0.89735582  0.43195400  0.08902431    -0.00300
C298        C  0.89975106  0.43461061  0.14268178    -0.12200
C299        C  0.86987532  0.42222739  0.17405244     0.01900
C300        C  0.83733994  0.40677392  0.15155995    -0.00400
C301        C  0.83507752  0.40399495  0.09800188    -0.12100
C302        C  0.86481072  0.41638688  0.06663728     0.01800
H303        H  0.92470777  0.44663394  0.15998691     0.14800
H304        H  0.81036131  0.39164703  0.08082116     0.14800
C305        C  0.86219057  0.41179541  0.01181203     0.36500
C306        C  0.87372074  0.42458844  0.22919182     0.36400
N307        N  0.85821240  0.90938333  0.96745045    -0.43900
N308        N  0.87628961  0.42615104  0.27346293    -0.43900
C309        C  0.16527539  0.43425142  0.07588182    -0.00300
C310        C  0.16398193  0.43581978  0.12957023    -0.12200
C311        C  0.19429551  0.42265885  0.15917984     0.01900
C312        C  0.22613745  0.40733126  0.13475548    -0.00400
C313        C  0.22750410  0.40576488  0.08101543    -0.12100
C314        C  0.19735708  0.41920712  0.05134009     0.01800
H315        H  0.13930937  0.44748427  0.14834402     0.14800
H316        H  0.25170555  0.39349423  0.06242674     0.14800
C317        C  0.19895103  0.41605707  0.99615074     0.36500
C318        C  0.19127414  0.42422763  0.21445768     0.36400
N319        N  0.20027744  0.41337560  0.95195998    -0.43900
N320        N  0.18870929  0.42556373  0.25873433    -0.43900
C321        C  0.83539823  0.34193510  0.15585659    -0.00300
C322        C  0.87605421  0.34405389  0.17029484    -0.12200
C323        C  0.90633551  0.33023380  0.14166314     0.01900
C324        C  0.89584770  0.31315005  0.09780452    -0.00400
C325        C  0.85456964  0.31023320  0.08477769    -0.12100
C326        C  0.82445536  0.32455096  0.11323996     0.01800
H327        H  0.88420338  0.35729425  0.20355675     0.14800
H328        H  0.84568479  0.29741686  0.05137098     0.14800
C329        C  0.78277835  0.32216673  0.09680637     0.36500
C330        C  0.94749284  0.33452817  0.15883145     0.36400
N331        N  0.74934553  0.32031709  0.08377144    -0.43900
N332        N  0.98006768  0.33867081  0.17359788    -0.43900
C333        C  0.16077413  0.31760327  0.07920721    -0.00300
C334        C  0.20153495  0.31357668  0.06465834    -0.12200
C335        C  0.23300324  0.32606181  0.09315879     0.01900
C336        C  0.22394795  0.34272656  0.13728623    -0.00400
C337        C  0.18374400  0.34623970  0.15283324    -0.12100
C338        C  0.15210733  0.33447739  0.12394790     0.01800
H339        H  0.20905245  0.30091392  0.03054250     0.14800
H340        H  0.17705198  0.35913946  0.18700156     0.14800
C341        C  0.11148344  0.34096029  0.14121504     0.36500
C342        C  0.27414141  0.32218625  0.07558438     0.36400
N343        N  0.07911252  0.34665500  0.15514532    -0.43900
N344        N  0.30703256  0.31895481  0.06129317    -0.43900
C345        C  0.21083076  0.15639956  0.75725106    -0.00300
C346        C  0.22472631  0.16812777  0.80377543    -0.12200
C347        C  0.19802486  0.18194577  0.83792643     0.01900
C348        C  0.15649704  0.18486473  0.82484311    -0.00400
C349        C  0.14302724  0.17350748  0.77740205    -0.12100
C350        C  0.16976458  0.15937064  0.74374168     0.01800
H351        H  0.25640468  0.16561940  0.81411209     0.14800
H352        H  0.11150681  0.17580898  0.76626564     0.14800
C353        C  0.15453912  0.14834566  0.69534634     0.36500
C354        C  0.21405264  0.19136387  0.88690103     0.36400
N355        N  0.14232857  0.13951231  0.65656410    -0.43900
N356        N  0.22742746  0.19860891  0.92605325    -0.43900
C357        C  0.21104629  0.09133904  0.75752092    -0.00300
C358        C  0.17638706  0.07886552  0.73535700    -0.12200
C359        C  0.14782548  0.06433837  0.76584240     0.01900
C360        C  0.15414160  0.06207083  0.81938390    -0.00400
C361        C  0.18986712  0.07340495  0.84103223    -0.12100
C362        C  0.21830009  0.08797565  0.81052445     0.01800
H363        H  0.17148855  0.08079238  0.69426817     0.14800
H364        H  0.19521958  0.07134755  0.88202397     0.14800
C365        C  0.25478859  0.09913511  0.83421791     0.36500
C366        C  0.11325502  0.05097683  0.74101542     0.36400
N367        N  0.28406508  0.10807687  0.85312185    -0.43900
N368        N  0.08577646  0.04008935  0.72088644    -0.43900
C369        C  0.66253111  0.43665770  0.33581798    -0.00300
C370        C  0.65335559  0.42926166  0.28459844    -0.12200
C371        C  0.68266651  0.41667673  0.25269536     0.01900
C372        C  0.72157361  0.41085931  0.27227673    -0.00400
C373        C  0.73140110  0.41903130  0.32256358    -0.12100
C374        C  0.70227707  0.43181952  0.35455398     0.01800
H375        H  0.62330819  0.43348205  0.26929652     0.14800
H376        H  0.76152511  0.41444170  0.33733484     0.14800
C377        C  0.71363319  0.43819852  0.40697683     0.36500
C378        C  0.67236246  0.40975050  0.20008547     0.36400
N379        N  0.72405965  0.94420351  0.44815170    -0.43900
N380        N  0.66447230  0.40425255  0.15780644    -0.43900
C381        C  0.33949055  0.40657225  0.25888585    -0.00300
C382        C  0.33151683  0.40821521  0.31164005    -0.12200
C383        C  0.35958004  0.42089703  0.34516766     0.01900
C384        C  0.39607835  0.43248550  0.32552236    -0.00400
C385        C  0.40371859  0.43113458  0.27257369    -0.12100
C386        C  0.37557710  0.41848003  0.23911465     0.01800
H387        H  0.30368945  0.39892455  0.32670135     0.14800
H388        H  0.43146607  0.44040234  0.25724066     0.14800
C389        C  0.38447372  0.41780535  0.18485214     0.36500
C390        C  0.35102850  0.42041448  0.39956267     0.36400
N391        N  0.39175703  0.41744997  0.14138182    -0.43900
N392        N  0.34402360  0.41977169  0.44310050    -0.43900
C393        C  0.38611353  0.06490572  0.57496598    -0.00300
C394        C  0.38627086  0.06117843  0.62844129    -0.12200
C395        C  0.35580837  0.07378638  0.65858642     0.01900
C396        C  0.32507421  0.09080151  0.63497263    -0.00400
C397        C  0.32462872  0.09416440  0.58145126    -0.12100
C398        C  0.35495771  0.08146105  0.55131293     0.01800
H399        H  0.41018665  0.04833418  0.64659710     0.14800
H400        H  0.30123457  0.10759178  0.56347186     0.14800
C401        C  0.35483673  0.08730658  0.49676962     0.36500
C402        C  0.35753516  0.06993168  0.71364839     0.36400
N403        N  0.35472771  0.09230783  0.45315884    -0.43900
N404        N  0.35884974  0.06674641  0.75774763    -0.43900
C405        C  0.65815406  0.31542068  0.32766574    -0.00300
C406        C  0.69420875  0.32402454  0.35223489    -0.12200
C407        C  0.72421535  0.33936828  0.32548332     0.01900
C408        C  0.71834125  0.34619287  0.27326475    -0.00400
C409        C  0.68280197  0.33738757  0.24838414    -0.12100
C410        C  0.65271700  0.32204816  0.27495153     0.01800
H411        H  0.69873871  0.31910662  0.39265142     0.14800
H412        H  0.67879977  0.34230447  0.20787347     0.14800
C413        C  0.61798551  0.31203625  0.24609663     0.36500
C414        C  0.76075247  0.34781344  0.35222719     0.36400
N415        N  0.59080187  0.30401686  0.22170229    -0.43900
N416        N  0.78998426  0.35462594  0.37375191    -0.43900
C417        C  0.39333773  0.31695428  0.32915613    -0.00300
C418        C  0.40465078  0.32267668  0.27801961    -0.12200
C419        C  0.37720228  0.33513618  0.24341415     0.01900
C420        C  0.33794434  0.34221020  0.26002760     0.00400
C421        C  0.32615021  0.33614757  0.31052156    -0.12100
C422        C  0.35357971  0.32381415  0.34539754     0.01800
H423        H  0.43486383  0.31710315  0.26482407     0.14800
H424        H  0.29587539  0.34208608  0.32309199     0.14800
C425        C  0.34062496  0.31997657  0.39791599     0.36500
C426        C  0.38969740  0.34050466  0.19107612     0.36400
N427        N  0.32985380  0.31714204  0.43991129    -0.43900
N428        N  0.39933307  0.34476102  0.14899209    -0.43900
C429        C  0.39105252  0.18269513  0.58090291    -0.00300
C430        C  0.34995393  0.18850955  0.56954256    -0.12200
C431        C  0.31875949  0.17510521  0.59739568     0.01900
C432        C  0.32824207  0.15582329  0.63822098    -0.00400
C433        C  0.36890949  0.15046144  0.65059166    -0.12100
C434        C  0.40022081  0.16303926  0.62198720     0.01800
H435        H  0.34188334  0.20322895  0.53817162     0.14800
H436        H  0.37620918  0.13567176  0.68219242     0.14800
C437        C  0.44105975  0.15465994  0.63584913     0.36500
C438        C  0.27732143  0.18053180  0.58207559     0.36400
N439        N  0.47356655  0.14749304  0.64718100    -0.43900
N440        N  0.24410254  0.18480655  0.56978525    -0.43900
C441        C  0.82937180  0.09272283  0.77477762    -0.00300
C442        C  0.81767753  0.08029748  0.82167044    -0.12200
C443        C  0.84625328  0.06692792  0.85405459     0.01900
C444        C  0.88745512  0.06540190  0.83879674    -0.00400
C445        C  0.89856323  0.07735530  0.79089591    -0.12100
C446        C  0.86996945  0.09081474  0.75894825     0.01800
H447        H  0.78629821  0.08192624  0.83368571     0.14800
H448        H  0.92969446  0.07599274  0.77789433     0.14800
C449        C  0.88290200  0.10239998  0.70993081     0.36500
C450        C  0.83231477  0.05627984  0.90326010     0.36400
N451        N  0.89326230  0.11175371  0.67070315    -0.43900
N452        N  0.82060552  0.04795842  0.94257910    -0.43900
C453        C  0.82931082  0.15769319  0.77516997    -0.00300
C454        C  0.86265291  0.17030558  0.75039468    -0.12200
C455        C  0.89294047  0.18459543  0.77853512     0.01900
C456        C  0.88985251  0.18645591  0.83261885    -0.00400
C457        C  0.85546979  0.17483291  0.85707486    -0.12100
C458        C  0.82520721  0.16059065  0.82874272     0.01800
H459        H  0.86513031  0.16873217  0.70892826     0.14800
H460        H  0.85247315  0.17657393  0.89846754     0.14800
C461        C  0.78978858  0.14968454  0.85503818     0.36500
C462        C  0.92557040  0.19833894  0.75049804     0.36400
N463        N  0.76118864  0.14105686  0.87580764    -0.43900
N464        N  0.95112972  0.20947543  0.72710454    -0.43900
C465        C  0.71422566  0.09341205  0.65218388    -0.00300
C466        C  0.67685819  0.08598198  0.67357196    -0.12200
C467        C  0.64686002  0.07246049  0.64385282     0.01900
C468        C  0.65390177  0.06664965  0.59116074    -0.00400
C469        C  0.69194692  0.07373544  0.57013340    -0.12100
C470        C  0.72210607  0.08686919  0.60031434     0.01800
H471        H  0.67117643  0.09078030  0.71377782     0.14800
H472        H  0.69811244  0.06911848  0.52999601     0.14800
C473        C  0.76092674  0.09348587  0.57761249     0.36500
C474        C  0.61051707  0.06324035  0.66985346     0.36400
N475        N  0.79218731  0.09885730  0.55990602    -0.43900
N476        N  0.58224959  0.05582565  0.69261249    -0.43900
C477        C  0.65881696  0.18385727  0.58410737    -0.00300
C478        C  0.64838676  0.17776918  0.63540101    -0.12200
C479        C  0.67647695  0.16516949  0.66919021     0.01900
C480        C  0.71538493  0.15781421  0.65140526    -0.00400
C481        C  0.72631253  0.16426155  0.60077867    -0.12100
C482        C  0.69854720  0.17729057  0.56700884     0.01800
H483        H  0.61840176  0.18333406  0.64944183     0.14800
H484        H  0.75646196  0.15858357  0.58742475     0.14800
C485        C  0.71164430  0.18271378  0.51497737     0.36500
C486        C  0.66500262  0.16024828  0.72201145     0.36400
N487        N  0.72301727  0.18692805  0.47359374    -0.43900
N488        N  0.65597055  0.15653894  0.76446512    -0.43900
C489        C  0.74358078  0.60965950  0.68394005     0.02100
C490        C  0.74361552  0.64091559  0.68378560     0.02100
C491        C  0.77177797  0.65640024  0.71342812    -0.18400
C492        C  0.79966519  0.64099537  0.74386100     0.02100
C493        C  0.79942337  0.60967897  0.74443805     0.02100
C494        C  0.77123762  0.59419175  0.71465911    -0.18400
H495        H  0.77124021  0.57013326  0.71478140     0.04100
H496        H  0.77195478  0.68045595  0.71286174     0.04100
Zr497      Zr  0.52512464  0.79389096  0.38893633     2.17500
O498        O  0.52563393  0.80631362  0.29776406    -0.51500
O499        O  0.52598624  0.84545650  0.41662273    -0.74700
O500        O  0.45961780  0.80872231  0.35581721    -0.81500
O501        O  0.63901742  0.78231581  0.39337342    -0.83200
O502        O  0.41016447  0.78292025  0.39649750    -0.78800
O503        O  0.58920053  0.80665875  0.34984605    -0.90500
O504        O  0.52608108  0.84596797  0.50391721    -0.76400
O505        O  0.48275019  0.79530203  0.46265946    -0.85900
O506        O  0.56951015  0.79438612  0.46102648    -0.85600
O507        O  0.48428219  0.75005660  0.38272320    -0.72400
O508        O  0.56465135  0.74933935  0.38167662    -0.84500
Zr509      Zr  0.52555501  0.70664938  0.52515920     2.26400
Zr510      Zr  0.44318734  0.75103572  0.45848791     2.06300
Zr511      Zr  0.60783571  0.74949849  0.45552211     2.10000
Zr512      Zr  0.52719155  0.79509148  0.53457908     1.78800
O513        O  0.65515514  0.71846074  0.40794251    -0.93300
O514        O  0.47005312  0.81781682  0.57885668    -0.41100
O515        O  0.56651522  0.75040765  0.53077223    -0.77800
O516        O  0.48619226  0.75128364  0.53249510    -0.96400
O517        O  0.48159034  0.70627853  0.45292667    -0.89700
O518        O  0.56789012  0.70558840  0.45131837    -0.92600
C519        C  0.52598526  0.85897326  0.46004440     1.01200
C520        C  0.62649648  0.80038259  0.35861703     1.14100
C521        C  0.42248156  0.80173627  0.36314230     1.04900
O522        O  0.39577154  0.78098851  0.50797103    -0.94700
O523        O  0.41118363  0.71754571  0.51849422    -0.90500
O524        O  0.46023724  0.68998788  0.55663902    -0.83600
C525        C  0.42299980  0.69730977  0.54986482     1.11500
O526        O  0.52015284  0.71278526  0.28646727    -0.96700
Zr527      Zr  0.52368778  0.70552397  0.37924159     1.88900
O528        O  0.52542143  0.65511342  0.49760798    -0.73400
O529        O  0.39089432  0.72217287  0.41532740    -0.52600
O530        O  0.46168872  0.68421868  0.34434451    -0.97300
O531        O  0.58075647  0.68241381  0.33516554    -0.54500
O532        O  0.52377748  0.65473688  0.41020965    -0.73900
C533        C  0.52464553  0.64171259  0.45406522     0.98500
O534        O  0.52566268  0.69905750  0.61807526    -0.62700
O535        O  0.66086879  0.77578147  0.50204209    -0.57500
O536        O  0.59083776  0.69103252  0.55832987    -0.94200
O537        O  0.63995534  0.71797336  0.51896248    -0.92600
O538        O  0.58732583  0.81776275  0.57188158    -0.93000
O539        O  0.53031483  0.78814919  0.62731693    -0.91700
C540        C  0.62792303  0.69852966  0.55146314     1.17300
H541        H  0.58709376  0.81147143  0.46041473     0.33300
H542        H  0.47006013  0.75063859  0.56339956     0.44100
H543        H  0.58518034  0.68824727  0.45118923     0.37600
H544        H  0.46757815  0.75073054  0.35219921     0.34100
H545        H  0.48136599  0.83584456  0.59514570     0.25900
H546        H  0.36511910  0.73213399  0.42447113     0.31800
H547        H  0.46980883  0.66456737  0.33075929     0.37700
H548        H  0.57781755  0.83702595  0.58571761     0.32200
H549        H  0.68620126  0.77069655  0.48368842     0.31100
H550        H  0.68046897  0.73014159  0.40645287     0.32800
H551        H  0.59023944  0.66639293  0.35831297     0.31700
H552        H  0.52130875  0.76747147  0.63290517     0.35700
H553        H  0.54849962  0.71106939  0.63122160     0.28500
H554        H  0.51480746  0.82677673  0.29508021     0.32700
H555        H  0.51959490  0.69262027  0.27138647     0.35500
H556        H  0.65628844  0.79704072  0.49435834     0.28200
H557        H  0.50142280  0.70971218  0.63085986     0.41000
H558        H  0.40250174  0.77682626  0.54435840     0.31100
H559        H  0.45239716  0.82547175  0.55102931     0.38700
H560        H  0.60250981  0.69745482  0.33654296     0.30600
H561        H  0.39446406  0.72622299  0.37822254     0.30600
H562        H  0.50498646  0.79349459  0.28141692     0.30900
Zr563      Zr  0.52135381  0.54420911  0.52543543     2.17500
O564        O  0.50986246  0.55778461  0.61478400    -0.51500
O565        O  0.52216059  0.59563516  0.49731843    -0.74700
O566        O  0.58513651  0.55808794  0.56636440    -0.81500
O567        O  0.40745741  0.53353335  0.50883453    -0.83200
O568        O  0.63601431  0.53459870  0.52387553    -0.78800
O569        O  0.45488984  0.55616898  0.55878398    -0.90500
O570        O  0.52746663  0.59611877  0.41027328    -0.76400
O571        O  0.56729857  0.54529004  0.45514847    -0.85900
O572        O  0.48097545  0.54508830  0.44958557    -0.85600
O573        O  0.56139469  0.99982566  0.53493183    -0.72400
O574        O  0.48149147  0.99986437  0.52782647    -0.84500
Zr575      Zr  0.52760211  0.95671676  0.38834936     2.26400
Zr576      Zr  0.60610667  0.50060301  0.46292325     2.06300
Zr577      Zr  0.44226891  0.50053106  0.45088017     2.10000
Zr578      Zr  0.52672888  0.54538323  0.37955571     1.78800
O579        O  0.38858191  0.97551725  0.49711318    -0.93300
O580        O  0.58725713  0.56593249  0.33992103    -0.41100
O581        O  0.48712252  0.50087877  0.37906090    -0.77800
O582        O  0.56703433  0.50134553  0.38537926    -0.96400
O583        O  0.56758704  0.95572541  0.46446451    -0.89700
O584        O  0.48140285  0.95606997  0.45841157    -0.92600
C585        C  0.52482084  0.60909363  0.45399990     1.01200
C586        C  0.41823375  0.55061407  0.54566653     1.14100
C587        C  0.62277709  0.55228983  0.55860733     1.04900
O588        O  0.66278244  0.52626236  0.42319111    -0.94700
O589        O  0.64112543  0.96937460  0.40116036    -0.90500
O590        O  0.59419212  0.94165493  0.35917280    -0.83600
C591        C  0.63077708  0.94979200  0.36796677     1.11500
O592        O  0.51650382  0.96345977  0.62681170    -0.96700
Zr593      Zr  0.52135318  0.95558204  0.53431650     1.88900
O594        O  0.52661191  0.90512529  0.41637102    -0.73400
O595        O  0.65022599  0.96923763  0.51532225    -0.52600
O596        O  0.57876285  0.93384365  0.57986658    -0.97300
O597        O  0.46065754  0.93273349  0.56989449    -0.54500
O598        O  0.52450440  0.90473413  0.50371716    -0.73900
C599        C  0.52574954  0.89168000  0.45991081     0.98500
O600        O  0.53497734  0.94710356  0.29625184    -0.62700
O601        O  0.39720635  0.52780599  0.39345953    -0.57500
O602        O  0.46381284  0.94155866  0.35026275    -0.94200
O603        O  0.41262343  0.96588220  0.39098771    -0.92600
O604        O  0.46952038  0.57051822  0.33916994    -0.93000
O605        O  0.52478958  0.53874110  0.28668027    -0.91700
C606        C  0.42624317  0.94743208  0.35778416     1.17300
H607        H  0.46350187  0.56233343  0.44874718     0.33300
H608        H  0.58467227  0.50093750  0.35583324     0.44100
H609        H  0.46404359  0.93886740  0.45714366     0.37600
H610        H  0.57649163  0.00042957  0.56678751     0.34100
H611        H  0.57723093  0.58261677  0.31860125     0.25900
H612        H  0.67703551  0.97894010  0.51334258     0.31800
H613        H  0.57022643  0.91339320  0.58841668     0.37700
H614        H  0.48114988  0.58865097  0.32365194     0.32200
H615        H  0.36957289  0.52217398  0.40441228     0.31100
H616        H  0.36329391  0.98194497  0.47981696     0.32800
H617        H  0.45278293  0.91714961  0.54503979     0.31700
H618        H  0.54080641  0.52050725  0.28031245     0.35700
H619        H  0.50937690  0.95349307  0.27974194     0.28500
H620        H  0.52697252  0.57534373  0.62166248     0.32700
H621        H  0.51463099  0.94341951  0.64221046     0.35500
H622        H  0.39986783  0.54882981  0.40379901     0.28200
H623        H  0.55481764  0.96195149  0.28406048     0.41000
H624        H  0.65317826  0.54690754  0.41845216     0.31100
H625        H  0.60194955  0.57564456  0.36849511     0.38700
H626        H  0.43934919  0.94810656  0.56642704     0.30600
H627        H  0.64127577  0.97271878  0.55109222     0.30600
H628        H  0.52210389  0.54135178  0.63474089     0.30900
C629        C  0.29657309  0.63893858  0.66630212     0.02100
C630        C  0.29547578  0.60759749  0.66569018     0.02100
C631        C  0.26674645  0.59247949  0.69485948    -0.18400
C632        C  0.23920896  0.60816754  0.72502946     0.02100
C633        C  0.23940367  0.63944978  0.72474898     0.02100
C634        C  0.26821945  0.65463431  0.69561629    -0.18400
H635        H  0.26901788  0.67867591  0.69648698     0.04100
H636        H  0.26631706  0.56841575  0.69481471     0.04100
Zr637      Zr  0.02430428  0.70674225  0.88919664     2.17500
O638        O  0.02065103  0.69672572  0.79726430    -0.51500
O639        O  0.02467135  0.65464374  0.91468632    -0.74700
O640        O  0.08898488  0.69220040  0.85270495    -0.81500
O641        O  0.90996619  0.71726204  0.90108323    -0.83200
O642        O  0.13885734  0.71933970  0.88977699    -0.78800
O643        O  0.95861130  0.69485521  0.85274424    -0.90500
O644        O  0.02974968  0.65343045  0.00175849    -0.76400
O645        O  0.07064314  0.70562756  0.95931488    -0.85900
O646        O  0.98404498  0.70397145  0.96481828    -0.85600
O647        O  0.06235346  0.75193008  0.88164945    -0.72400
O648        O  0.98227485  0.75026379  0.88795311    -0.84500
Zr649      Zr  0.02660065  0.79197793  0.02926085     2.26400
Zr650      Zr  0.10755952  0.75104412  0.95369852     2.06300
Zr651      Zr  0.94315739  0.74779007  0.96506894     2.10000
Zr652      Zr  0.03029161  0.70356092  0.03475911     1.78800
O653        O  0.89064692  0.77810248  0.92524644    -0.93300
O654        O  0.09129557  0.68121318  0.07111995    -0.41100
O655        O  0.98850423  0.74703451  0.03650918    -0.77800
O656        O  0.06865233  0.74846187  0.03097903    -0.96400
O657        O  0.06661766  0.79466888  0.95370954    -0.89700
O658        O  0.98015472  0.79297856  0.95947971    -0.92600
C659        C  0.02710328  0.64080340  0.95775828     1.01200
C660        C  0.92152910  0.70068139  0.86376439     1.14100
C661        C  0.12623424  0.69969541  0.85792739     1.04900
O662        O  0.16208066  0.72432424  0.99681769    -0.94700
O663        O  0.14025492  0.78336245  0.01526559    -0.90500
O664        O  0.09188705  0.80924621  0.05789776    -0.83600
C665        C  0.12890075  0.80247166  0.04890658     1.11500
O666        O  0.01768298  0.79049248  0.79079927    -0.96700
Zr667      Zr  0.02024414  0.79539017  0.88403954     1.88900
O668        O  0.02505999  0.84432838  0.00528451    -0.73400
O669        O  0.15317170  0.78289356  0.90532328    -0.52600
O670        O  0.07556363  0.82138976  0.84179183    -0.97300
O671        O  0.95832380  0.81736812  0.84945526    -0.54500
O672        O  0.02123118  0.84547273  0.91803384    -0.73900
C673        C  0.02327430  0.85816385  0.96209943     0.98500
O674        O  0.02996394  0.79416762  0.12271791    -0.62700
O675        O  0.89480018  0.71758587  0.01240419    -0.57500
O676        O  0.96311684  0.80708745  0.06743281    -0.94200
O677        O  0.91424793  0.77765181  0.03346696    -0.92600
O678        O  0.97291169  0.68074976  0.07797666    -0.93000
O679        O  0.03333300  0.70679091  0.12815314    -0.91700
C680        C  0.92641285  0.79801003  0.06439326     1.17300
H681        H  0.96725037  0.68648867  0.96475552     0.33300
H682        H  0.08632187  0.74898213  0.06057501     0.44100
H683        H  0.96212182  0.80984204  0.96184002     0.37600
H684        H  0.07747281  0.75200885  0.84982225     0.34100
H685        H  0.08169723  0.66332347  0.08948157     0.25900
H686        H  0.18028190  0.77381034  0.90996180     0.31800
H687        H  0.09520116  0.82575739  0.86955533     0.37700
H688        H  0.98241330  0.66061238  0.08744645     0.32200
H689        H  0.86857731  0.72090899  0.99475830     0.31100
H690        H  0.86494725  0.76808274  0.93410017     0.32800
H691        H  0.94824984  0.83091558  0.87654036     0.31700
H692        H  0.04317656  0.72709284  0.13530570     0.35700
H693        H  0.00871303  0.78032366  0.13460369     0.28500
H694        H  0.03141853  0.67638074  0.79252248     0.32700
H695        H  0.01389929  0.81090039  0.77746255     0.35500
H696        H  0.90198654  0.69678020  0.00424024     0.28200
H697        H  0.05555952  0.78404074  0.13219883     0.41000
H698        H  0.15331481  0.72276807  0.03307352     0.31100
H699        H  0.10628750  0.67329488  0.04116985     0.38700
H700        H  0.93856708  0.80089979  0.84882665     0.30600
H701        H  0.14635280  0.77928921  0.86879832     0.30600
H702        H  0.04083403  0.70997254  0.78109549     0.30900
Zr703      Zr  0.02350512  0.54249414  0.88856775     2.17500
O704        O  0.02138148  0.55399408  0.79702581    -0.51500
O705        O  0.02531919  0.59442917  0.91455726    -0.74700
O706        O  0.95648302  0.55716237  0.85946957    -0.81500
O707        O  0.13802908  0.53153371  0.88949495    -0.83200
O708        O  0.90891259  0.53120639  0.90300675    -0.78800
O709        O  0.08679226  0.55465767  0.84656324    -0.90500
O710        O  0.02731500  0.59543354  0.00184292    -0.76400
O711        O  0.98253464  0.54365461  0.96348505    -0.85900
O712        O  0.06875582  0.54478436  0.95961580    -0.85600
O713        O  0.98402040  0.99798807  0.88517788    -0.72400
O714        O  0.06370978  0.99843458  0.88264765    -0.84500
Zr715      Zr  0.02893476  0.95674377  0.02926906     2.26400
Zr716      Zr  0.94424615  0.99893343  0.96205321     2.06300
Zr717      Zr  0.10822759  0.00043189  0.95500271     2.10000
Zr718      Zr  0.02781114  0.54515519  0.03445998     1.78800
O719        O  0.16152636  0.97457705  0.90827611    -0.93300
O720        O  0.97025611  0.56928355  0.07559282    -0.41100
O721        O  0.06885227  0.50130566  0.03192900    -0.77800
O722        O  0.98836424  0.50067614  0.03520567    -0.96400
O723        O  0.98376600  0.95462802  0.95807526    -0.89700
O724        O  0.06976962  0.95568521  0.95394281    -0.92600
C725        C  0.02651624  0.60816120  0.95776746     1.01200
C726        C  0.12435080  0.54854733  0.85399607     1.14100
C727        C  0.91957376  0.55035399  0.86928336     1.04900
O728        O  0.89637029  0.52699554  0.01297255    -0.94700
O729        O  0.91434434  0.96456262  0.02217429    -0.90500
O730        O  0.96493054  0.94152635  0.06665058    -0.83600
C731        C  0.92745631  0.94679485  0.05693980     1.11500
O732        O  0.02535089  0.95790684  0.78984483    -0.96700
Zr733      Zr  0.02448563  0.95374529  0.88326560     1.88900
O734        O  0.02673829  0.90462299  0.00505011    -0.73400
O735        O  0.89335776  0.97017130  0.91604505    -0.52600
O736        O  0.96219045  0.93362969  0.84725687    -0.97300
O737        O  0.08126856  0.92791164  0.84308670    -0.54500
O738        O  0.02245079  0.90364651  0.91784305    -0.73900
C739        C  0.02405965  0.89088392  0.96195651     0.98500
O740        O  0.03406101  0.95052120  0.12234491    -0.62700
O741        O  0.15408691  0.53262466  0.00364987    -0.57500
O742        O  0.09577170  0.94179455  0.05844608    -0.94200
O743        O  0.14315717  0.96699313  0.01233822    -0.92600
O744        O  0.08826164  0.56721550  0.07193574    -0.93000
O745        O  0.02926065  0.54003533  0.12758631    -0.91700
C746        C  0.13244460  0.94829292  0.04673933     1.17300
H747        H  0.08596342  0.56205203  0.95801948     0.33300
H748        H  0.97267164  0.50031384  0.06650666     0.44100
H749        H  0.08747084  0.93857161  0.95377495     0.37600
H750        H  0.96673154  0.99825790  0.85518292     0.34100
H751        H  0.98159038  0.58745991  0.09135155     0.25900
H752        H  0.86714797  0.97930612  0.92576211     0.31800
H753        H  0.96878000  0.91278795  0.83852862     0.37700
H754        H  0.07883068  0.58615459  0.08710850     0.32200
H755        H  0.14974108  0.52710586  0.04004717     0.31100
H756        H  0.18706743  0.98356276  0.92069639     0.32800
H757        H  0.09106317  0.91345435  0.86895554     0.31700
H758        H  0.03129332  0.51838903  0.13358383     0.35700
H759        H  0.05628762  0.96387958  0.13307690     0.28500
H760        H  0.01039332  0.57441159  0.79440819     0.32700
H761        H  0.02188657  0.93743763  0.77675266     0.35500
H762        H  0.18155680  0.52510364  0.99560273     0.28200
H763        H  0.00957650  0.96009016  0.13680896     0.41000
H764        H  0.90735560  0.52650056  0.04837933     0.31100
H765        H  0.95331540  0.57665062  0.04682726     0.38700
H766        H  0.10300098  0.94295838  0.84120454     0.30600
H767        H  0.89687114  0.97529923  0.87933356     0.30600
H768        H  0.00016082  0.54104714  0.78224725     0.30900
C769        C  0.30974804  0.85861734  0.22712841     0.02100
C770        C  0.31112836  0.88984761  0.22637760     0.02100
C771        C  0.28453369  0.90574787  0.19504698    -0.18400
C772        C  0.25626041  0.89072674  0.16495054     0.02100
C773        C  0.25519704  0.85943423  0.16542318     0.02100
C774        C  0.28214131  0.84354416  0.19627826    -0.18400
H775        H  0.28095284  0.81950410  0.19724643     0.04100
H776        H  0.28526703  0.92980122  0.19489899     0.04100
C777        C  0.75070118  0.89283670  0.24221093     0.02100
C778        C  0.74831086  0.86163879  0.24183961     0.02100
C779        C  0.77537588  0.84510303  0.21229435    -0.18400
C780        C  0.80495502  0.85935717  0.18318763     0.02100
C781        C  0.80725171  0.89063795  0.18323284     0.02100
C782        C  0.78011608  0.90718737  0.21292975    -0.18400
H783        H  0.78158063  0.93121751  0.21276200     0.04100
H784        H  0.77381574  0.82107016  0.21259510     0.04100
C785        C  0.89696925  0.93189166  0.08870299    -0.00300
C786        C  0.89977940  0.93414059  0.14236062    -0.12200
C787        C  0.87013477  0.92158277  0.17383596     0.01900
C788        C  0.83747797  0.90620569  0.15143777    -0.00400
C789        C  0.83482625  0.90379839  0.09784297    -0.12100
C790        C  0.86421456  0.91653460  0.06636075     0.01800
H791        H  0.92485852  0.94605800  0.15961012     0.14800
H792        H  0.80995352  0.89160418  0.08069291     0.14800
C793        C  0.86089089  0.91262524  0.01143484     0.36500
C794        C  0.87431128  0.92393499  0.22892378     0.36400
N795        N  0.86017371  0.40797651  0.96791216    -0.43900
N796        N  0.87740817  0.92569782  0.27311709    -0.43900
C797        C  0.16479808  0.93379669  0.07597827    -0.00300
C798        C  0.16344392  0.93529471  0.12969800    -0.12200
C799        C  0.19424801  0.92270990  0.15931849     0.01900
C800        C  0.22651420  0.90786042  0.13491591    -0.00400
C801        C  0.22806021  0.90649843  0.08117593    -0.12100
C802        C  0.19746653  0.91940033  0.05148940     0.01800
H803        H  0.13843141  0.94655214  0.14848264     0.14800
H804        H  0.25261647  0.89460895  0.06259428     0.14800
C805        C  0.19900856  0.91604137  0.99634378     0.36500
C806        C  0.19150897  0.92450731  0.21460303     0.36400
N807        N  0.20020548  0.91307847  0.95220250    -0.43900
N808        N  0.18936525  0.92607255  0.25889515    -0.43900
C809        C  0.83493151  0.84132889  0.15513778    -0.00300
C810        C  0.87545940  0.84306623  0.17026328    -0.12200
C811        C  0.90581628  0.82902616  0.14209492     0.01900
C812        C  0.89555014  0.81227782  0.09777894    -0.00400
C813        C  0.85434032  0.80964440  0.08413530    -0.12100
C814        C  0.82414345  0.82409262  0.11229407     0.01800
H815        H  0.88345496  0.85611615  0.20381095     0.14800
H816        H  0.84560617  0.79701299  0.05045302     0.14800
C817        C  0.78254544  0.82208402  0.09538811     0.36500
C818        C  0.94677882  0.83263734  0.16043920     0.36400
N819        N  0.74909593  0.82065901  0.08225509    -0.43900
N820        N  0.97908871  0.83628375  0.17649090    -0.43900
C821        C  0.16085167  0.81713007  0.07988374    -0.00300
C822        C  0.20163983  0.81324082  0.06530701    -0.12200
C823        C  0.23297817  0.82633837  0.09320623     0.01900
C824        C  0.22379093  0.84323531  0.13699832    -0.00400
C825        C  0.18360820  0.84658949  0.15265078    -0.12100
C826        C  0.15207127  0.83430093  0.12427015     0.01800
H827        H  0.20924982  0.80037616  0.03145404     0.14800
H828        H  0.17685080  0.85963229  0.18663584     0.14800
C829        C  0.11144098  0.84047051  0.14183459     0.36500
C830        C  0.27409447  0.82312456  0.07514545     0.36400
N831        N  0.07911345  0.84595952  0.15616265    -0.43900
N832        N  0.30701170  0.82063402  0.06052240    -0.43900
C833        C  0.21071081  0.65648554  0.75658483    -0.00300
C834        C  0.22458090  0.66862566  0.80278324    -0.12200
C835        C  0.19781074  0.68248753  0.83674782     0.01900
C836        C  0.15621711  0.68499544  0.82385158    -0.00400
C837        C  0.14275662  0.67329581  0.77664011    -0.12100
C838        C  0.16960079  0.65918747  0.74306889     0.01800
H839        H  0.25631342  0.66640373  0.81303789     0.14800
H840        H  0.11118585  0.67534370  0.76558654     0.14800
C841        C  0.15448418  0.64813138  0.69462275     0.36500
C842        C  0.21383184  0.69241487  0.88540925     0.36400
N843        N  0.14230198  0.63939880  0.65575338    -0.43900
N844        N  0.22702554  0.70014324  0.92437733    -0.43900
C845        C  0.21122854  0.59144651  0.75798633    -0.00300
C846        C  0.17684291  0.57865526  0.73574044    -0.12200
C847        C  0.14824449  0.56422736  0.76622737     0.01900
C848        C  0.15425678  0.56239577  0.81985764    -0.00400
C849        C  0.18975451  0.57400956  0.84163895    -0.12100
C850        C  0.21822195  0.58851489  0.81113542     0.01800
H851        H  0.17217417  0.58027688  0.69456665     0.14800
H852        H  0.19486475  0.57225846  0.88272426     0.14800
C853        C  0.25429612  0.60019664  0.83510566     0.36500
C854        C  0.11400968  0.55047064  0.74131366     0.36400
N855        N  0.28312347  0.60959602  0.85445198    -0.43900
N856        N  0.08681810  0.53925332  0.72110735    -0.43900
C857        C  0.66289732  0.93645594  0.33597262    -0.00300
C858        C  0.65344673  0.92889104  0.28494725    -0.12200
C859        C  0.68255412  0.91627703  0.25285272     0.01900
C860        C  0.72159442  0.91050980  0.27203891    -0.00400
C861        C  0.73178477  0.91898645  0.32210729    -0.12100
C862        C  0.70281900  0.93186562  0.35429422     0.01800
H863        H  0.62331921  0.93306177  0.26986932     0.14800
H864        H  0.76206761  0.91462481  0.33653492     0.14800
C865        C  0.71451162  0.93873883  0.40641943     0.36500
C866        C  0.67190088  0.90955300  0.20029752     0.36400
N867        N  0.72306577  0.44318290  0.44893040    -0.43900
N868        N  0.66351525  0.90438352  0.15805124    -0.43900
C869        C  0.33980314  0.90607229  0.25913518    -0.00300
C870        C  0.33251787  0.90727094  0.31205775    -0.12200
C871        C  0.36061605  0.92023184  0.34514883     0.01900
C872        C  0.39649863  0.93248025  0.32491909    -0.00400
C873        C  0.40345091  0.93159452  0.27176021    -0.12100
C874        C  0.37517721  0.91871954  0.23870915     0.01800
H875        H  0.30508653  0.89759960  0.32754570     0.14800
H876        H  0.43069007  0.94140949  0.25598983     0.14800
C877        C  0.38301750  0.91863161  0.18414920     0.36500
C878        C  0.35261562  0.91957124  0.39967210     0.36400
N879        N  0.38912738  0.91867122  0.14037936    -0.43900
N880        N  0.34602908  0.91886758  0.44331149    -0.43900
C881        C  0.38596276  0.56455317  0.57559629    -0.00300
C882        C  0.38588904  0.56073632  0.62903083    -0.12200
C883        C  0.35541061  0.57344037  0.65897153     0.01900
C884        C  0.32476581  0.59041224  0.63512503    -0.00400
C885        C  0.32450757  0.59381134  0.58161916    -0.12100
C886        C  0.35505301  0.58124141  0.55173062     0.01800
H887        H  0.40972510  0.54787560  0.64731753     0.14800
H888        H  0.30124750  0.60731049  0.56351827     0.14800
C889        C  0.35563435  0.58759279  0.49735666     0.36500
C890        C  0.35717731  0.56997093  0.71410756     0.36400
N891        N  0.35615474  0.59311378  0.45394089    -0.43900
N892        N  0.35846996  0.56723281  0.75829583    -0.43900
C893        C  0.65745787  0.81560985  0.32756353    -0.00300
C894        C  0.69324468  0.82489344  0.35198334    -0.12200
C895        C  0.72321473  0.83993262  0.32466263     0.01900
C896        C  0.71753512  0.84583763  0.27207270    -0.00400
C897        C  0.68221229  0.83639654  0.24736244    -0.12100
C898        C  0.65215589  0.82134557  0.27452171     0.01800
H899        H  0.69763195  0.82066572  0.39265715     0.14800
H900        H  0.67830004  0.84067487  0.20662164     0.14800
C901        C  0.61749362  0.81076624  0.24613385     0.36500
C902        C  0.75964624  0.84892545  0.35110506     0.36400
N903        N  0.59025723  0.80226213  0.22233726    -0.43900
N904        N  0.78885934  0.85623609  0.37216946    -0.43900
C905        C  0.39230611  0.81543945  0.32881847    -0.00300
C906        C  0.40351314  0.82097924  0.27761447    -0.12200
C907        C  0.37635766  0.83405559  0.24332998     0.01900
C908        C  0.33727674  0.84154459  0.26013545     0.00400
C909        C  0.32541030  0.83530881  0.31057477    -0.12100
C910        C  0.35274671  0.82268683  0.34530384     0.01800
H911        H  0.43359838  0.81513234  0.26429729     0.14800
H912        H  0.29528453  0.84151699  0.32332300     0.14800
C913        C  0.34019100  0.81926808  0.39808087     0.36500
C914        C  0.38927662  0.84010394  0.19139290     0.36400
N915        N  0.33002194  0.81679233  0.44038947    -0.43900
N916        N  0.39945321  0.84503736  0.14974238    -0.43900
C917        C  0.39121345  0.68196024  0.58055741    -0.00300
C918        C  0.35012382  0.68762145  0.56892285    -0.12200
C919        C  0.31892811  0.67430256  0.59685351     0.01900
C920        C  0.32838561  0.65534907  0.63810956    -0.00400
C921        C  0.36904011  0.65000623  0.65059637    -0.12100
C922        C  0.40037002  0.66238361  0.62175395     0.01800
H923        H  0.34206647  0.70215437  0.53728806     0.14800
H924        H  0.37630329  0.63531909  0.68235364     0.14800
C925        C  0.44117752  0.65369065  0.63518934     0.36500
C926        C  0.27749369  0.67944038  0.58122681     0.36400
N927        N  0.47363647  0.64617766  0.64606724    -0.43900
N928        N  0.24424264  0.68341991  0.56878898    -0.43900
C929        C  0.82950664  0.59292623  0.77471919    -0.00300
C930        C  0.81800837  0.58077489  0.82191649    -0.12200
C931        C  0.84660097  0.56711043  0.85393161     0.01900
C932        C  0.88760432  0.56504264  0.83804449    -0.00400
C933        C  0.89852137  0.57681990  0.78991073    -0.12100
C934        C  0.86989072  0.59053596  0.75829523     0.01800
H935        H  0.78676895  0.58273839  0.83435428     0.14800
H936        H  0.92949903  0.57508547  0.77646148     0.14800
C937        C  0.88240854  0.60175048  0.70883950     0.36500
C938        C  0.83295791  0.55669058  0.90341427     0.36400
N939        N  0.89217966  0.61079957  0.66915377    -0.43900
N940        N  0.82158892  0.54852684  0.94299312    -0.43900
C941        C  0.82925320  0.65792876  0.77454752    -0.00300
C942        C  0.86280595  0.67024380  0.74978086    -0.12200
C943        C  0.89304743  0.68462833  0.77787526     0.01900
C944        C  0.88969537  0.68689010  0.83189986    -0.00400
C945        C  0.85506423  0.67558815  0.85628897    -0.12100
C946        C  0.82490418  0.66119285  0.82800667     0.01800
H947        H  0.86550779  0.66833390  0.70838035     0.14800
H948        H  0.85186914  0.67757597  0.89762258     0.14800
C949        C  0.78948447  0.65022868  0.85423308     0.36500
C950        C  0.92597802  0.69797072  0.74981932     0.36400
N951        N  0.76088339  0.64142754  0.87477932    -0.43900
N952        N  0.95179938  0.70876717  0.72641005    -0.43900
C953        C  0.71431072  0.59307761  0.65231216    -0.00300
C954        C  0.67757622  0.58473112  0.67447472    -0.12200
C955        C  0.64724740  0.57147517  0.64491737     0.01900
C956        C  0.65348087  0.56664555  0.59177536    -0.00400
C957        C  0.69098076  0.57444902  0.57004111    -0.12100
C958        C  0.72137446  0.58746709  0.59991421     0.01800
H959        H  0.67253252  0.58881363  0.71505387     0.14800
H960        H  0.69648525  0.57055673  0.52951591     0.14800
C961        C  0.75948350  0.59501890  0.57618474     0.36500
C962        C  0.61126778  0.56179998  0.67126327     0.36400
N963        N  0.79007081  0.60115458  0.55737442    -0.43900
N964        N  0.58321741  0.55409519  0.69417498    -0.43900
C965        C  0.65858812  0.68435023  0.58477692    -0.00300
C966        C  0.64787088  0.67773774  0.63574686    -0.12200
C967        C  0.67566052  0.66458160  0.66926584     0.01900
C968        C  0.71477578  0.65758366  0.65166082    -0.00400
C969        C  0.72595806  0.66462162  0.60134217    -0.12100
C970        C  0.69827444  0.67780499  0.56767108     0.01800
H971        H  0.61779040  0.68313461  0.64966031     0.14800
H972        H  0.75620178  0.65918104  0.58806608     0.14800
C973        C  0.71117389  0.68309236  0.51551627     0.36500
C974        C  0.66344462  0.65862442  0.72148638     0.36400
N975        N  0.72218214  0.68710117  0.47391328    -0.43900
N976        N  0.65341913  0.65409058  0.76333332    -0.43900
loop_ 
_geom_bond_atom_site_label_1 
_geom_bond_atom_site_label_2 
_geom_bond_distance 
_geom_bond_site_symmetry_2 
_ccdc_geom_bond_type 
C1            C2   1.408       .  A
C1            C6   1.397       .  A
C1          C465   1.474       .  S
C2            C3   1.395       .  A
C2          C480   1.470       .  S
C3            C4   1.396       .  A
C3            H8   1.084       .  S
C4            C5   1.412       .  A
C4          C453   1.475       .  S
C5            C6   1.398       .  A
C5          C441   1.473       .  S
C6            H7   1.084       .  S
Zr9          O10   2.437       .  S
Zr9          O11   2.435       .  S
Zr9          O12   2.416       .  S
Zr9          O15   2.420       .  S
Zr9          O17   2.377       .  S
Zr9          O18   2.379       .  S
Zr9          O19   2.401       .  S
Zr9          O20   2.398       .  S
O10          H66   0.990       .  S
O10          H74   0.990       .  S
O11          C31   1.284       .  A
O12          C33   1.281       .  A
O13         Zr23   2.424       .  S
O13          C32   1.284       .  A
O14         Zr22   2.420       .  S
O14          C33   1.282       .  A
O15          C32   1.282       .  A
O16         Zr24   2.428       .  S
O16          C31   1.283       .  A
O17         Zr22   2.390       .  S
O17         Zr24   2.374       .  S
O18         Zr23   2.390       .  S
O18         Zr24   2.375       .  S
O18          H53   0.966       .  S
O19         Zr22   2.395       .  S
O19         Zr39   2.390       .  S
O19          H56   0.967       .  S
O20         Zr23   2.388       .  S
O20         Zr39   2.398       .  S
Zr21         O46   2.442       .  S
Zr21         O40   2.430       .  S
Zr21         O48   2.427       .  S
Zr21         O36   2.430       .  S
Zr21         O27   2.396       .  S
Zr21         O28   2.399       .  S
Zr21         O29   2.376       .  S
Zr21         O30   2.378       .  S
Zr22         O41   2.438       .  S
Zr22         O34   2.433       .  S
Zr22         O35   2.420       .  S
Zr22         O28   2.393       .  S
Zr22         O29   2.384       .  S
Zr23         O25   2.434       .  S
Zr23         O47   2.437       .  S
Zr23         O49   2.420       .  S
Zr23         O27   2.390       .  S
Zr23         O30   2.383       .  S
Zr24         O50   2.435       .  S
Zr24         O51   2.436       .  S
Zr24         O26   2.436       .  S
Zr24         O27   2.395       .  S
Zr24         O28   2.396       .  S
O25          H62   0.990       .  S
O26          H57   0.990       .  S
O26          H71   0.990       .  S
O28          H54   0.966       .  S
O29         Zr39   2.370       .  S
O30         Zr39   2.375       .  S
O30          H55   0.966       .  S
C31         C111   1.475       .  S
C32         C405   1.476       .  S
C33         C417   1.471       .  S
O34          H70   0.990       .  S
O35          C37   1.284       .  A
O36          C37   1.284       .  A
C37         C429   1.492       .  S
O38         Zr39   2.439       .  S
O38          H67   0.990       .  S
Zr39         O42   2.438       .  S
Zr39         O43   2.438       .  S
Zr39         O44   2.429       .  S
O40          C45   1.284       .  A
O41          H58   0.990       .  S
O41          H73   0.990       .  S
O42          H59   0.990       .  S
O43          H63   0.990       .  S
O43          H72   0.990       .  S
O44          C45   1.284       .  A
C45          C97   1.471       .  S
O46          H65   0.990       .  S
O46          H69   0.990       .  S
O47          H61   0.990       .  S
O47          H68   0.990       .  S
O48          C52   1.285       .  A
O49          C52   1.282       .  A
O50          H60   0.990       .  S
O51          H64   0.990       .  S
C52         C477   1.478       .  S
Zr75         O76   2.432       .  S
Zr75         O77   2.431       .  S
Zr75         O78   2.443       .  S
Zr75         O81   2.422       .  S
Zr75         O83   2.379       .  S
Zr75         O84   2.379       .  S
Zr75        O573   2.401   1_545  S
Zr75        O574   2.399   1_545  S
O76         H132   0.990       .  S
O76         H140   0.989       .  S
O77          C97   1.284       .  A
O78          C99   1.286       .  A
O79         Zr89   2.413       .  S
O79          C98   1.281       .  A
O80         Zr88   2.417       .  S
O80          C99   1.282       .  A
O81          C98   1.283       .  A
O82         Zr90   2.423       .  S
O82          C97   1.282       .  A
O83         Zr88   2.393       .  S
O83         Zr90   2.378       .  S
O84         Zr89   2.384       .  S
O84         Zr90   2.368       .  S
O84         H119   0.967       .  S
O85        Zr105   2.395       .  S
O85        Zr563   2.400       .  S
O85        Zr576   2.394       .  S
O85         H122   0.967       .  S
O86        Zr105   2.395       .  S
O86        Zr563   2.399       .  S
O86        Zr577   2.390       .  S
Zr87        O112   2.447       .  S
Zr87        O106   2.435       .  S
Zr87        O114   2.428       .  S
Zr87        O102   2.422       .  S
Zr87         O95   2.381       .  S
Zr87         O96   2.378       .  S
Zr87        O581   2.401       .  S
Zr87        O582   2.404       .  S
Zr88        O100   2.434       .  S
Zr88        O595   2.435   1_545  S
Zr88        O589   2.417   1_545  S
Zr88         O94   2.393       .  S
Zr88        O573   2.394   1_545  S
Zr88        O583   2.385   1_545  S
Zr89        O113   2.436       .  S
Zr89        O579   2.434   1_545  S
Zr89        O603   2.410   1_545  S
Zr89         O93   2.389       .  S
Zr89        O574   2.388   1_545  S
Zr89        O584   2.385   1_545  S
Zr90        O116   2.435       .  S
Zr90        O117   2.436       .  S
Zr90         O92   2.437       .  S
Zr90         O93   2.398       .  S
Zr90         O94   2.393       .  S
O91        Zr577   2.434       .  S
O91         H128   0.990       .  S
O92         H123   0.990       .  S
O92         H137   0.990       .  S
O93        Zr575   2.402   1_545  S
O94        Zr575   2.403   1_545  S
O94         H120   0.966       .  S
O95        Zr105   2.376       .  S
O95        Zr576   2.387       .  S
O96        Zr105   2.373       .  S
O96        Zr577   2.385       .  S
O96         H121   0.966       .  S
C98         C393   1.464       .  S
C99         C468   1.482       .  S
O100        H136   0.989       .  S
O101       Zr576   2.420       .  S
O101        C103   1.283       .  A
O102        C103   1.283       .  A
C103        C369   1.476       .  S
O104       Zr105   2.439       .  S
O104        H133   0.990       .  S
Zr105       O108   2.437       .  S
Zr105       O109   2.439       .  S
Zr105       O110   2.431       .  S
O106        C111   1.285       .  A
O107       Zr576   2.435       .  S
O107        H124   0.990       .  S
O107        H139   0.990       .  S
O108        H125   0.990       .  S
O109        H129   0.990       .  S
O109        H138   0.990       .  S
O110        C111   1.284       .  A
O112        H131   0.989       .  S
O112        H135   0.990       .  S
O113        H127   0.990       .  S
O113        H134   0.989       .  S
O114        C118   1.283       .  A
O115       Zr577   2.409       .  S
O115        C118   1.280       .  A
O116        H126   0.990       .  S
O117        H130   0.990       .  S
C118        C384   1.467       .  S
C141        C142   1.414       .  A
C141        C146   1.400       .  A
C141        C432   1.483       .  S
C142        C143   1.396       .  A
C142        C396   1.474       .  S
C143        C144   1.394       .  A
C143        H148   1.085       .  S
C144        C145   1.410       .  A
C144        C357   1.473       .  S
C145        C146   1.399       .  A
C145        C345   1.475       .  S
C146        H147   1.084       .  S
Zr149       O150   2.438       .  S
Zr149       O151   2.435       .  S
Zr149       O152   2.431       .  S
Zr149       O155   2.425   1_455  S
Zr149       O157   2.380       .  S
Zr149       O158   2.383   1_455  S
Zr149       O159   2.402       .  S
Zr149       O160   2.401   1_455  S
O150        H206   0.990       .  S
O150        H214   0.990       .  S
O151        C171   1.284       .  A
O152        C173   1.284       .  A
O153       Zr163   2.425       .  S
O153        C172   1.284       .  A
O154       Zr162   2.421       .  S
O154        C173   1.282       .  A
O155        C172   1.284       .  A
O156       Zr164   2.419       .  S
O156        C171   1.282   1_554  A
O157       Zr162   2.391       .  S
O157       Zr164   2.378   1_556  S
O158       Zr163   2.391       .  S
O158       Zr164   2.372   1_656  S
O158        H193   0.965       .  S
O159       Zr162   2.394       .  S
O159       Zr179   2.399       .  S
O159        H196   0.968       .  S
O160       Zr163   2.392       .  S
O160       Zr179   2.393   1_655  S
Zr161       O186   2.437       .  S
Zr161       O180   2.441       .  S
Zr161       O188   2.414   1_455  S
Zr161       O176   2.409       .  S
Zr161       O167   2.396   1_455  S
Zr161       O168   2.400       .  S
Zr161       O169   2.373   1_554  S
Zr161       O170   2.376   1_454  S
Zr162       O181   2.436       .  S
Zr162       O174   2.434       .  S
Zr162       O175   2.419   1_556  S
Zr162       O168   2.391   1_556  S
Zr162       O169   2.380       .  S
Zr163       O165   2.435       .  S
Zr163       O187   2.438   1_556  S
Zr163       O189   2.430   1_556  S
Zr163       O167   2.386   1_556  S
Zr163       O170   2.383       .  S
Zr164       O190   2.435   1_455  S
Zr164       O191   2.437       .  S
Zr164       O166   2.438       .  S
Zr164       O167   2.392   1_455  S
Zr164       O168   2.394       .  S
O165        H202   0.990       .  S
O166        H197   0.991       .  S
O166        H211   0.990       .  S
O168        H194   0.966       .  S
O169       Zr179   2.370       .  S
O170       Zr179   2.371   1_655  S
O170        H195   0.966       .  S
C171        C237   1.471       .  S
C172        C456   1.475       .  S
C173        C348   1.485       .  S
O174        H210   0.990   1_556  S
O175        C177   1.284       .  A
O176        C177   1.280       .  A
C177        C333   1.483       .  S
O178       Zr179   2.437       .  S
O178        H207   0.990       .  S
Zr179       O182   2.436       .  S
Zr179       O183   2.439   1_455  S
Zr179       O184   2.425       .  S
O180        C185   1.286   1_554  A
O181        H198   0.990       .  S
O181        H213   0.990       .  S
O182        H199   0.990       .  S
O183        H203   0.990       .  S
O183        H212   0.990       .  S
O184        C185   1.283       .  A
C185        C251   1.475       .  S
O186        H205   0.990       .  S
O186        H209   0.990       .  S
O187        H201   0.990   1_554  S
O187        H208   0.990       .  S
O188        C192   1.282       .  A
O189        C192   1.286       .  A
O190        H200   0.990       .  S
O191        H204   0.990       .  S
C192        C324   1.486       .  S
Zr215       O216   2.438       .  S
Zr215       O217   2.435       .  S
Zr215       O218   2.428   1_455  S
Zr215       O221   2.426       .  S
Zr215       O223   2.376   1_455  S
Zr215       O224   2.377       .  S
Zr215       O713   2.404   1_445  S
Zr215       O714   2.400   1_545  S
O216        H272   0.990       .  S
O216        H280   0.990   1_455  S
O217        C237   1.284       .  A
O218        C239   1.284       .  A
O219       Zr717   2.415       .  S
O219        C238   1.282       .  A
O220       Zr716   2.416   1_545  S
O220        C239   1.280       .  A
O221        C238   1.284       .  A
O222       Zr230   2.422       .  S
O222        C237   1.282   1_554  A
O223       Zr230   2.376   1_656  S
O223       Zr716   2.389   1_545  S
O224       Zr230   2.374   1_556  S
O224       Zr717   2.382       .  S
O224        H259   0.966       .  S
O225       Zr228   2.395       .  S
O225       Zr245   2.398   1_655  S
O225       Zr703   2.404   1_655  S
O225        H262   0.966       .  S
O226       Zr229   2.388       .  S
O226       Zr245   2.396       .  S
O226       Zr703   2.400       .  S
Zr227       O252   2.447       .  S
Zr227       O246   2.435       .  S
Zr227       O254   2.423       .  S
Zr227       O242   2.430   1_455  S
Zr227       O235   2.378   1_454  S
Zr227       O236   2.383   1_554  S
Zr227       O721   2.399       .  S
Zr227       O722   2.401   1_455  S
Zr228       O247   2.437       .  S
Zr228       O728   2.435   1_556  S
Zr228       O241   2.417   1_556  S
Zr228       O708   2.420       .  S
Zr228       O235   2.386       .  S
Zr228       O711   2.387       .  S
Zr228       O722   2.395   1_556  S
Zr229       O231   2.435       .  S
Zr229       O741   2.437   1_556  S
Zr229       O255   2.407   1_556  S
Zr229       O707   2.412       .  S
Zr229       O236   2.388       .  S
Zr229       O712   2.380       .  S
Zr229       O721   2.391   1_556  S
Zr230       O256   2.436       .  S
Zr230       O257   2.437       .  S
Zr230       O232   2.437   1_455  S
Zr230       O233   2.394       .  S
Zr230       O234   2.395   1_455  S
O231        H268   0.990       .  S
O232        H263   0.990       .  S
O232        H277   0.990       .  S
O233       Zr715   2.397   1_545  S
O233       Zr717   2.390   1_554  S
O234       Zr715   2.400   1_645  S
O234       Zr716   2.393   1_544  S
O234        H260   0.966       .  S
O235       Zr245   2.370   1_655  S
O236       Zr245   2.369       .  S
O236        H261   0.966       .  S
C238        C360   1.472       .  S
C239        C444   1.484       .  S
O240       Zr716   2.434   1_544  S
O240        H276   0.990       .  S
O241        C243   1.282       .  A
O242        C243   1.283       .  A
C243        C297   1.468       .  S
O244       Zr245   2.438       .  S
O244        H273   0.990       .  S
Zr245       O248   2.436   1_455  S
Zr245       O249   2.441       .  S
Zr245       O250   2.430       .  S
O246        C251   1.284   1_554  A
O247        H264   0.990       .  S
O247        H279   0.990       .  S
O248        H265   0.990       .  S
O249        H269   0.990       .  S
O249        H278   0.990       .  S
O250        C251   1.285       .  A
O252        H271   0.990       .  S
O252        H275   0.990       .  S
O253       Zr717   2.438   1_554  S
O253        H267   0.990       .  S
O253        H274   0.990   1_554  S
O254        C258   1.283       .  A
O255        C258   1.280       .  A
O256        H266   0.990       .  S
O257        H270   0.990       .  S
C258        C309   1.460       .  S
C281        C282   1.408       .  A
C281        C286   1.393       .  A
C281        C420   1.464       .  S
C282        C283   1.393       .  A
C282        C381   1.471       .  S
C283        C284   1.395       .  A
C283        H288   1.084       .  S
C284        C285   1.411       .  A
C284        C312   1.470       .  S
C285        C286   1.394       .  A
C285        C336   1.470       .  S
C286        H287   1.085       .  S
C289        C290   1.408       .  A
C289        C294   1.396       .  A
C289        C372   1.468       .  S
C290        C291   1.394       .  A
C290        C408   1.471       .  S
C291        C292   1.395       .  A
C291        H296   1.085       .  S
C292        C293   1.412       .  A
C292        C321   1.473       .  S
C293        C294   1.398       .  A
C293        C300   1.476       .  S
C294        H295   1.084       .  S
C297        C298   1.404       .  A
C297        C302   1.410       .  A
C298        C299   1.399       .  A
C298        H303   1.085       .  S
C299        C300   1.408       .  A
C299        C306   1.444       .  S
C300        C301   1.401       .  A
C301        C302   1.396       .  A
C301        H304   1.085       .  S
C302        C305   1.444       .  S
C305        N795   1.157   1_554  T
C306        N308   1.157       .  T
N307        C793   1.157   1_556  T
C309        C310   1.400       .  A
C309        C314   1.410       .  A
C310        C311   1.393       .  A
C310        H315   1.085       .  S
C311        C312   1.409       .  A
C311        C318   1.444       .  S
C312        C313   1.401       .  A
C313        C314   1.395       .  A
C313        H316   1.085       .  S
C314        C317   1.444   1_554  S
C317        N319   1.157       .  T
C318        N320   1.157       .  T
C321        C322   1.397       .  A
C321        C326   1.405       .  A
C322        C323   1.393       .  A
C322        H327   1.085       .  S
C323        C324   1.420       .  A
C323        C330   1.443       .  S
C324        C325   1.410       .  A
C325        C326   1.397       .  A
C325        H328   1.084       .  S
C326        C329   1.444       .  S
C329        N331   1.157       .  T
C330        N332   1.157       .  T
C333        C334   1.410       .  A
C333        C338   1.420       .  A
C334        C335   1.395       .  A
C334        H339   1.084       .  S
C335        C336   1.404       .  A
C335        C342   1.444       .  S
C336        C337   1.397       .  A
C337        C338   1.392       .  A
C337        H340   1.085       .  S
C338        C341   1.444       .  S
C341        N343   1.157       .  T
C342        N344   1.157       .  T
C345        C346   1.398       .  A
C345        C350   1.406       .  A
C346        C347   1.398       .  A
C346        H351   1.085       .  S
C347        C348   1.418       .  A
C347        C354   1.443       .  S
C348        C349   1.408       .  A
C349        C350   1.397       .  A
C349        H352   1.084       .  S
C350        C353   1.444       .  S
C353        N355   1.157       .  T
C354        N356   1.157       .  T
C357        C358   1.400       .  A
C357        C362   1.408       .  A
C358        C359   1.398       .  A
C358        H363   1.085       .  S
C359        C360   1.412       .  A
C359        C366   1.444       .  S
C360        C361   1.404       .  A
C361        C362   1.396       .  A
C361        H364   1.085       .  S
C362        C365   1.444       .  S
C365        N367   1.157       .  T
C366        N368   1.157       .  T
C369        C370   1.407       .  A
C369        C374   1.415       .  A
C370        C371   1.395       .  A
C370        H375   1.084       .  S
C371        C372   1.405       .  A
C371        C378   1.445       .  S
C372        C373   1.397       .  A
C373        C374   1.396       .  A
C373        H376   1.085       .  S
C374        C377   1.443       .  S
C377        N867   1.157       .  T
C378        N380   1.157       .  T
N379        C865   1.157       .  T
C381        C382   1.400       .  A
C381        C386   1.407       .  A
C382        C383   1.395       .  A
C382        H387   1.085       .  S
C383        C384   1.411       .  A
C383        C390   1.444       .  S
C384        C385   1.403       .  A
C385        C386   1.395       .  A
C385        H388   1.085       .  S
C386        C389   1.443       .  S
C389        N391   1.157       .  T
C390        N392   1.157       .  T
C393        C394   1.402       .  A
C393        C398   1.409       .  A
C394        C395   1.396       .  A
C394        H399   1.085       .  S
C395        C396   1.410       .  A
C395        C402   1.444       .  S
C396        C397   1.401       .  A
C397        C398   1.395       .  A
C397        H400   1.085       .  S
C398        C401   1.444       .  S
C401        N403   1.157       .  T
C402        N404   1.157       .  T
C405        C406   1.406       .  A
C405        C410   1.415       .  A
C406        C407   1.397       .  A
C406        H411   1.085       .  S
C407        C408   1.406       .  A
C407        C414   1.444       .  S
C408        C409   1.398       .  A
C409        C410   1.396       .  A
C409        H412   1.085       .  S
C410        C413   1.443       .  S
C413        N415   1.157       .  T
C414        N416   1.157       .  T
C417        C418   1.407       .  A
C417        C422   1.413       .  A
C418        C419   1.393       .  A
C418        H423   1.084       .  S
C419        C420   1.403       .  A
C419        C426   1.445       .  S
C420        C421   1.398       .  A
C421        C422   1.395       .  A
C421        H424   1.085       .  S
C422        C425   1.443       .  S
C425        N427   1.157       .  T
C426        N428   1.157       .  T
C429        C430   1.412       .  A
C429        C434   1.420       .  A
C430        C431   1.399       .  A
C430        H435   1.084       .  S
C431        C432   1.407       .  A
C431        C438   1.444       .  S
C432        C433   1.400       .  A
C433        C434   1.397       .  A
C433        H436   1.085       .  S
C434        C437   1.444       .  S
C437        N439   1.157       .  T
C438        N440   1.157       .  T
C441        C442   1.398       .  A
C441        C446   1.405       .  A
C442        C443   1.399       .  A
C442        H447   1.085       .  S
C443        C444   1.419       .  A
C443        C450   1.444       .  S
C444        C445   1.408       .  A
C445        C446   1.394       .  A
C445        H448   1.084       .  S
C446        C449   1.444       .  S
C449        N451   1.157       .  T
C450        N452   1.157       .  T
C453        C454   1.399       .  A
C453        C458   1.407       .  A
C454        C455   1.397       .  A
C454        H459   1.085       .  S
C455        C456   1.414       .  A
C455        C462   1.443       .  S
C456        C457   1.405       .  A
C457        C458   1.398       .  A
C457        H460   1.085       .  S
C458        C461   1.444       .  S
C461        N463   1.157       .  T
C462        N464   1.157       .  T
C465        C466   1.396       .  A
C465        C470   1.406       .  A
C466        C467   1.397       .  A
C466        H471   1.085       .  S
C467        C468   1.416       .  A
C467        C474   1.441       .  S
C468        C469   1.409       .  A
C469        C470   1.400       .  A
C469        H472   1.085       .  S
C470        C473   1.444       .  S
C473        N475   1.157       .  T
C474        N476   1.156       .  T
C477        C478   1.406       .  A
C477        C482   1.416       .  A
C478        C479   1.396       .  A
C478        H483   1.085       .  S
C479        C480   1.405       .  A
C479        C486   1.444       .  S
C480        C481   1.397       .  A
C481        C482   1.397       .  A
C481        H484   1.085       .  S
C482        C485   1.443       .  S
C485        N487   1.157       .  T
C486        N488   1.157       .  T
C489        C490   1.409       .  A
C489        C494   1.397       .  A
C489        C953   1.474       .  S
C490        C491   1.396       .  A
C490        C968   1.470       .  S
C491        C492   1.396       .  A
C491        H496   1.084       .  S
C492        C493   1.412       .  A
C492        C941   1.475       .  S
C493        C494   1.398       .  A
C493        C929   1.473       .  S
C494        H495   1.084       .  S
Zr497       O498   2.438       .  S
Zr497       O499   2.434       .  S
Zr497       O500   2.419       .  S
Zr497       O503   2.420       .  S
Zr497       O505   2.377       .  S
Zr497       O506   2.378       .  S
Zr497       O507   2.401       .  S
Zr497       O508   2.399       .  S
O498        H554   0.990       .  S
O498        H562   0.990       .  S
O499        C519   1.284       .  A
O500        C521   1.281       .  A
O501       Zr511   2.425       .  S
O501        C520   1.284       .  A
O502       Zr510   2.416       .  S
O502        C521   1.281       .  A
O503        C520   1.282       .  A
O504       Zr512   2.428       .  S
O504        C519   1.283       .  A
O505       Zr510   2.390       .  S
O505       Zr512   2.376       .  S
O506       Zr511   2.387       .  S
O506       Zr512   2.372       .  S
O506        H541   0.966       .  S
O507       Zr510   2.396       .  S
O507       Zr527   2.390       .  S
O507        H544   0.967       .  S
O508       Zr511   2.391       .  S
O508       Zr527   2.398       .  S
Zr509       O534   2.442       .  S
Zr509       O528   2.431       .  S
Zr509       O536   2.422       .  S
Zr509       O524   2.429       .  S
Zr509       O515   2.399       .  S
Zr509       O516   2.399       .  S
Zr509       O517   2.373       .  S
Zr509       O518   2.379       .  S
Zr510       O529   2.437       .  S
Zr510       O522   2.434       .  S
Zr510       O523   2.418       .  S
Zr510       O516   2.390       .  S
Zr510       O517   2.384       .  S
Zr511       O513   2.434       .  S
Zr511       O535   2.437       .  S
Zr511       O537   2.419       .  S
Zr511       O515   2.389       .  S
Zr511       O518   2.384       .  S
Zr512       O538   2.436       .  S
Zr512       O539   2.436       .  S
Zr512       O514   2.435       .  S
Zr512       O515   2.395       .  S
Zr512       O516   2.398       .  S
O513        H550   0.990       .  S
O514        H545   0.990       .  S
O514        H559   0.990       .  S
O516        H542   0.966       .  S
O517       Zr527   2.371       .  S
O518       Zr527   2.374       .  S
O518        H543   0.966       .  S
C519        C599   1.474       .  S
C520        C893   1.475       .  S
C521        C905   1.471       .  S
O522        H558   0.990       .  S
O523        C525   1.283       .  A
O524        C525   1.284       .  A
C525        C917   1.492       .  S
O526       Zr527   2.439       .  S
O526        H555   0.990       .  S
Zr527       O530   2.437       .  S
Zr527       O531   2.439       .  S
Zr527       O532   2.427       .  S
O528        C533   1.284       .  A
O529        H546   0.990       .  S
O529        H561   0.990       .  S
O530        H547   0.990       .  S
O531        H551   0.990       .  S
O531        H560   0.990       .  S
O532        C533   1.284       .  A
C533        C585   1.470       .  S
O534        H553   0.990       .  S
O534        H557   0.990       .  S
O535        H549   0.990       .  S
O535        H556   0.990       .  S
O536        C540   1.284       .  A
O537        C540   1.282       .  A
O538        H548   0.990       .  S
O539        H552   0.990       .  S
C540        C965   1.476       .  S
Zr563       O564   2.435       .  S
Zr563       O565   2.431       .  S
Zr563       O566   2.441       .  S
Zr563       O569   2.420       .  S
Zr563       O571   2.379       .  S
Zr563       O572   2.380       .  S
O564        H620   0.990       .  S
O564        H628   0.989       .  S
O565        C585   1.283       .  A
O566        C587   1.285       .  A
O567       Zr577   2.409       .  S
O567        C586   1.280       .  A
O568       Zr576   2.417       .  S
O568        C587   1.282       .  A
O569        C586   1.282       .  A
O570       Zr578   2.423       .  S
O570        C585   1.283       .  A
O571       Zr576   2.392       .  S
O571       Zr578   2.378       .  S
O572       Zr577   2.384       .  S
O572       Zr578   2.369       .  S
O572        H607   0.967       .  S
O573       Zr593   2.396       .  S
O573        H610   0.967   1_565  S
O574       Zr593   2.393       .  S
Zr575       O600   2.448       .  S
Zr575       O594   2.437       .  S
Zr575       O602   2.426       .  S
Zr575       O590   2.422       .  S
Zr575       O583   2.379       .  S
Zr575       O584   2.380       .  S
Zr576       O588   2.435       .  S
Zr576       O582   2.393       .  S
Zr577       O601   2.436       .  S
Zr577       O581   2.387       .  S
Zr578       O604   2.436       .  S
Zr578       O605   2.436       .  S
Zr578       O580   2.436       .  S
Zr578       O581   2.398       .  S
Zr578       O582   2.391       .  S
O579        H616   0.990       .  S
O580        H611   0.990       .  S
O580        H625   0.990       .  S
O582        H608   0.966       .  S
O583       Zr593   2.376       .  S
O584       Zr593   2.373       .  S
O584        H609   0.966       .  S
C586        C881   1.461       .  S
C587        C956   1.481       .  S
O588        H624   0.990       .  S
O589        C591   1.282       .  A
O590        C591   1.283       .  A
C591        C857   1.476       .  S
O592       Zr593   2.439       .  S
O592        H621   0.990       .  S
Zr593       O596   2.436       .  S
Zr593       O597   2.440       .  S
Zr593       O598   2.428       .  S
O594        C599   1.285       .  A
O595        H612   0.990       .  S
O595        H627   0.990       .  S
O596        H613   0.990       .  S
O597        H617   0.990       .  S
O597        H626   0.990       .  S
O598        C599   1.284       .  A
O600        H619   0.989       .  S
O600        H623   0.990       .  S
O601        H615   0.990       .  S
O601        H622   0.989       .  S
O602        C606   1.283       .  A
O603        C606   1.281       .  A
O604        H614   0.990       .  S
O605        H618   0.990       .  S
C606        C872   1.467       .  S
C629        C630   1.413       .  A
C629        C634   1.399       .  A
C629        C920   1.482       .  S
C630        C631   1.395       .  A
C630        C884   1.472       .  S
C631        C632   1.393       .  A
C631        H636   1.085       .  S
C632        C633   1.410       .  A
C632        C845   1.471       .  S
C633        C634   1.398       .  A
C633        C833   1.474       .  S
C634        H635   1.084       .  S
Zr637       O638   2.438       .  S
Zr637       O639   2.440       .  S
Zr637       O640   2.427       .  S
Zr637       O643   2.427   1_455  S
Zr637       O645   2.379       .  S
Zr637       O646   2.380   1_455  S
Zr637       O647   2.404       .  S
Zr637       O648   2.399   1_455  S
O638        H694   0.990       .  S
O638        H702   0.990       .  S
O639        C659   1.285       .  A
O640        C661   1.283       .  A
O641       Zr651   2.423       .  S
O641        C660   1.283       .  A
O642       Zr650   2.424       .  S
O642        C661   1.283       .  A
O643        C660   1.284       .  A
O644       Zr652   2.417       .  S
O644        C659   1.282   1_554  A
O645       Zr650   2.390       .  S
O645       Zr652   2.377   1_556  S
O646       Zr651   2.389       .  S
O646       Zr652   2.373   1_656  S
O646        H681   0.965       .  S
O647       Zr650   2.394       .  S
O647       Zr667   2.399       .  S
O647        H684   0.968       .  S
O648       Zr651   2.391       .  S
O648       Zr667   2.395   1_655  S
Zr649       O674   2.437       .  S
Zr649       O668   2.441       .  S
Zr649       O676   2.417   1_455  S
Zr649       O664   2.411       .  S
Zr649       O655   2.395   1_455  S
Zr649       O656   2.400       .  S
Zr649       O657   2.374   1_554  S
Zr649       O658   2.375   1_454  S
Zr650       O669   2.436       .  S
Zr650       O662   2.435       .  S
Zr650       O663   2.420   1_556  S
Zr650       O656   2.392   1_556  S
Zr650       O657   2.382       .  S
Zr651       O653   2.434       .  S
Zr651       O675   2.437   1_556  S
Zr651       O677   2.427   1_556  S
Zr651       O655   2.385   1_556  S
Zr651       O658   2.383       .  S
Zr652       O678   2.435   1_455  S
Zr652       O679   2.437       .  S
Zr652       O654   2.438       .  S
Zr652       O655   2.393   1_455  S
Zr652       O656   2.393       .  S
O653        H690   0.990       .  S
O654        H685   0.990       .  S
O654        H699   0.990       .  S
O656        H682   0.966       .  S
O657       Zr667   2.371       .  S
O658       Zr667   2.373   1_655  S
O658        H683   0.966       .  S
C659        C725   1.471       .  S
C660        C944   1.476       .  S
C661        C836   1.485       .  S
O662        H698   0.990   1_556  S
O663        C665   1.284       .  A
O664        C665   1.281       .  A
C665        C821   1.483       .  S
O666       Zr667   2.438       .  S
O666        H695   0.990       .  S
Zr667       O670   2.437       .  S
Zr667       O671   2.439   1_455  S
Zr667       O672   2.425       .  S
O668        C673   1.286   1_554  A
O669        H686   0.990       .  S
O669        H701   0.990       .  S
O670        H687   0.990       .  S
O671        H691   0.990       .  S
O671        H700   0.990       .  S
O672        C673   1.283       .  A
C673        C739   1.475       .  S
O674        H693   0.990       .  S
O674        H697   0.990       .  S
O675        H689   0.990   1_554  S
O675        H696   0.990       .  S
O676        C680   1.282       .  A
O677        C680   1.285       .  A
O678        H688   0.990       .  S
O679        H692   0.990       .  S
C680        C812   1.485       .  S
Zr703       O704   2.439       .  S
Zr703       O705   2.437       .  S
Zr703       O706   2.427   1_455  S
Zr703       O709   2.424       .  S
Zr703       O711   2.376   1_455  S
Zr703       O712   2.377       .  S
O704        H760   0.990       .  S
O704        H768   0.990       .  S
O705        C725   1.284       .  A
O706        C727   1.284       .  A
O707        C726   1.281       .  A
O708        C727   1.281       .  A
O709        C726   1.284       .  A
O710       Zr718   2.420       .  S
O710        C725   1.283   1_554  A
O711       Zr718   2.375   1_656  S
O712       Zr718   2.373   1_556  S
O712        H747   0.966       .  S
O713       Zr716   2.396       .  S
O713       Zr733   2.397   1_655  S
O713        H750   0.966       .  S
O714       Zr717   2.388   1_565  S
O714       Zr733   2.398       .  S
Zr715       O740   2.444       .  S
Zr715       O734   2.434       .  S
Zr715       O742   2.425       .  S
Zr715       O730   2.429   1_455  S
Zr715       O723   2.378   1_454  S
Zr715       O724   2.382   1_554  S
Zr716       O735   2.438       .  S
Zr716       O729   2.416   1_556  S
Zr716       O723   2.384       .  S
Zr717       O719   2.435   1_545  S
Zr717       O743   2.410   1_546  S
Zr717       O724   2.387   1_545  S
Zr718       O744   2.435       .  S
Zr718       O745   2.435       .  S
Zr718       O720   2.436   1_455  S
Zr718       O721   2.394       .  S
Zr718       O722   2.394   1_455  S
O719        H756   0.990       .  S
O720        H751   0.990       .  S
O720        H765   0.990       .  S
O722        H748   0.966       .  S
O723       Zr733   2.368   1_655  S
O724       Zr733   2.370       .  S
O724        H749   0.966       .  S
C726        C848   1.470       .  S
C727        C932   1.485       .  S
O728        H764   0.990       .  S
O729        C731   1.282       .  A
O730        C731   1.284       .  A
C731        C785   1.468       .  S
O732       Zr733   2.439       .  S
O732        H761   0.990       .  S
Zr733       O736   2.436   1_455  S
Zr733       O737   2.441       .  S
Zr733       O738   2.432       .  S
O734        C739   1.284   1_554  A
O735        H752   0.990       .  S
O735        H767   0.990       .  S
O736        H753   0.990       .  S
O737        H757   0.990       .  S
O737        H766   0.990       .  S
O738        C739   1.285       .  A
O740        H759   0.990       .  S
O740        H763   0.990       .  S
O741        H755   0.990       .  S
O741        H762   0.990   1_554  S
O742        C746   1.284       .  A
O743        C746   1.281       .  A
O744        H754   0.990       .  S
O745        H758   0.990       .  S
C746        C797   1.462       .  S
C769        C770   1.409       .  A
C769        C774   1.392       .  A
C769        C908   1.466       .  S
C770        C771   1.394       .  A
C770        C869   1.469       .  S
C771        C772   1.394       .  A
C771        H776   1.084       .  S
C772        C773   1.411       .  A
C772        C800   1.471       .  S
C773        C774   1.394       .  A
C773        C824   1.469       .  S
C774        H775   1.085       .  S
C777        C778   1.409       .  A
C777        C782   1.396       .  A
C777        C860   1.469       .  S
C778        C779   1.394       .  A
C778        C896   1.472       .  S
C779        C780   1.395       .  A
C779        H784   1.085       .  S
C780        C781   1.412       .  A
C780        C809   1.473       .  S
C781        C782   1.398       .  A
C781        C788   1.477       .  S
C782        H783   1.084       .  S
C785        C786   1.403       .  A
C785        C790   1.410       .  A
C786        C787   1.398       .  A
C786        H791   1.085       .  S
C787        C788   1.409       .  A
C787        C794   1.444       .  S
C788        C789   1.402       .  A
C789        C790   1.396       .  A
C789        H792   1.085       .  S
C790        C793   1.444       .  S
C794        N796   1.157       .  T
C797        C798   1.400       .  A
C797        C802   1.410       .  A
C798        C799   1.394       .  A
C798        H803   1.085       .  S
C799        C800   1.409       .  A
C799        C806   1.444       .  S
C800        C801   1.401       .  A
C801        C802   1.396       .  A
C801        H804   1.085       .  S
C802        C805   1.444   1_554  S
C805        N807   1.157       .  T
C806        N808   1.157       .  T
C809        C810   1.396       .  A
C809        C814   1.405       .  A
C810        C811   1.393       .  A
C810        H815   1.085       .  S
C811        C812   1.420       .  A
C811        C818   1.443       .  S
C812        C813   1.411       .  A
C813        C814   1.398       .  A
C813        H816   1.084       .  S
C814        C817   1.444       .  S
C817        N819   1.157       .  T
C818        N820   1.157       .  T
C821        C822   1.410       .  A
C821        C826   1.420       .  A
C822        C823   1.395       .  A
C822        H827   1.084       .  S
C823        C824   1.404       .  A
C823        C830   1.444       .  S
C824        C825   1.396       .  A
C825        C826   1.392       .  A
C825        H828   1.085       .  S
C826        C829   1.444       .  S
C829        N831   1.157       .  T
C830        N832   1.157       .  T
C833        C834   1.398       .  A
C833        C838   1.406       .  A
C834        C835   1.397       .  A
C834        H839   1.085       .  S
C835        C836   1.417       .  A
C835        C842   1.443       .  S
C836        C837   1.409       .  A
C837        C838   1.397       .  A
C837        H840   1.084       .  S
C838        C841   1.444       .  S
C841        N843   1.157       .  T
C842        N844   1.157       .  T
C845        C846   1.399       .  A
C845        C850   1.408       .  A
C846        C847   1.397       .  A
C846        H851   1.085       .  S
C847        C848   1.412       .  A
C847        C854   1.444       .  S
C848        C849   1.404       .  A
C849        C850   1.396       .  A
C849        H852   1.085       .  S
C850        C853   1.444       .  S
C853        N855   1.157       .  T
C854        N856   1.157       .  T
C857        C858   1.406       .  A
C857        C862   1.415       .  A
C858        C859   1.394       .  A
C858        H863   1.084       .  S
C859        C860   1.405       .  A
C859        C866   1.444       .  S
C860        C861   1.399       .  A
C861        C862   1.397       .  A
C861        H864   1.085       .  S
C862        C865   1.444       .  S
C866        N868   1.157       .  T
C869        C870   1.400       .  A
C869        C874   1.406       .  A
C870        C871   1.394       .  A
C870        H875   1.085       .  S
C871        C872   1.411       .  A
C871        C878   1.444       .  S
C872        C873   1.403       .  A
C873        C874   1.396       .  A
C873        H876   1.085       .  S
C874        C877   1.444       .  S
C877        N879   1.157       .  T
C878        N880   1.157       .  T
C881        C882   1.401       .  A
C881        C886   1.409       .  A
C882        C883   1.395       .  A
C882        H887   1.085       .  S
C883        C884   1.409       .  A
C883        C890   1.444       .  S
C884        C885   1.401       .  A
C885        C886   1.394       .  A
C885        H888   1.085       .  S
C886        C889   1.444       .  S
C889        N891   1.157       .  T
C890        N892   1.157       .  T
C893        C894   1.405       .  A
C893        C898   1.415       .  A
C894        C895   1.397       .  A
C894        H899   1.085       .  S
C895        C896   1.406       .  A
C895        C902   1.444       .  S
C896        C897   1.398       .  A
C897        C898   1.397       .  A
C897        H900   1.085       .  S
C898        C901   1.443       .  S
C901        N903   1.157       .  T
C902        N904   1.157       .  T
C905        C906   1.406       .  A
C905        C910   1.413       .  A
C906        C907   1.393       .  A
C906        H911   1.084       .  S
C907        C908   1.403       .  A
C907        C914   1.444       .  S
C908        C909   1.399       .  A
C909        C910   1.396       .  A
C909        H912   1.085       .  S
C910        C913   1.444       .  S
C913        N915   1.157       .  T
C914        N916   1.157       .  T
C917        C918   1.412       .  A
C917        C922   1.420       .  A
C918        C919   1.399       .  A
C918        H923   1.084       .  S
C919        C920   1.406       .  A
C919        C926   1.444       .  S
C920        C921   1.400       .  A
C921        C922   1.397       .  A
C921        H924   1.085       .  S
C922        C925   1.444       .  S
C925        N927   1.157       .  T
C926        N928   1.157       .  T
C929        C930   1.398       .  A
C929        C934   1.405       .  A
C930        C931   1.399       .  A
C930        H935   1.085       .  S
C931        C932   1.419       .  A
C931        C938   1.444       .  S
C932        C933   1.408       .  A
C933        C934   1.395       .  A
C933        H936   1.084       .  S
C934        C937   1.444       .  S
C937        N939   1.157       .  T
C938        N940   1.157       .  T
C941        C942   1.399       .  A
C941        C946   1.407       .  A
C942        C943   1.397       .  A
C942        H947   1.085       .  S
C943        C944   1.414       .  A
C943        C950   1.443       .  S
C944        C945   1.406       .  A
C945        C946   1.398       .  A
C945        H948   1.085       .  S
C946        C949   1.444       .  S
C949        N951   1.157       .  T
C950        N952   1.157       .  T
C953        C954   1.397       .  A
C953        C958   1.407       .  A
C954        C955   1.397       .  A
C954        H959   1.085       .  S
C955        C956   1.415       .  A
C955        C962   1.441       .  S
C956        C957   1.408       .  A
C957        C958   1.399       .  A
C957        H960   1.085       .  S
C958        C961   1.444       .  S
C961        N963   1.157       .  T
C962        N964   1.157       .  T
C965        C966   1.406       .  A
C965        C970   1.415       .  A
C966        C967   1.395       .  A
C966        H971   1.085       .  S
C967        C968   1.406       .  A
C967        C974   1.444       .  S
C968        C969   1.398       .  A
C969        C970   1.396       .  A
C969        H972   1.085       .  S
C970        C973   1.443       .  S
C973        N975   1.157       .  T
C974        N976   1.157       .  T
