geometry optimzed in LAMMPS
_audit_creation_date              2020-11-30 
_audit_creation_method            'lammps2cif' 
_symmetry_space_group_name_H-M    'P1' 
_symmetry_Int_Tables_number       1 
_symmetry_cell_setting            triclinic 
loop_ 
_symmetry_equiv_pos_as_xyz 
  x,y,z 
_cell_length_a                    29.47017169 
_cell_length_b                    29.961283203512075 
_cell_length_c                    30.09059856208847 
_cell_angle_alpha                 90.0901984016802 
_cell_angle_beta                  89.911851885821 
_cell_angle_gamma                 89.8943524819582 
loop_ 
_atom_site_label 
_atom_site_type_symbol 
_atom_site_fract_x 
_atom_site_fract_y 
_atom_site_fract_z 
_atom_site_charge 
O1          O  0.45086049  0.41864528  0.54733814    -0.78000
C2          C  0.55078942  0.40326604  0.43975522     0.83000
O3          O  0.58361219  0.50285807  0.59105047    -0.79200
O4          O  0.58220303  0.54600786  0.43607417    -0.80600
O5          O  0.42087580  0.54455635  0.44794738    -0.80400
O6          O  0.40192039  0.47329772  0.53391582    -0.79100
Zn7        Zn  0.51160492  0.44044222  0.52606296     1.55700
O8          O  0.47795748  0.53046043  0.40117332    -0.80500
Cd9        Cd  0.44417591  0.52266193  0.50913580     1.59700
Cd10       Cd  0.54850653  0.54145041  0.54390963     1.59600
O11         O  0.43903118  0.57550825  0.55288902    -0.80500
O12         O  0.50850249  0.50177896  0.50585318    -1.91000
Cd13       Cd  0.52788979  0.50356773  0.44221824     1.59900
O14         O  0.50865988  0.58777394  0.57926616    -0.80400
O15         O  0.54825934  0.44085417  0.41999005    -0.79100
C16         C  0.57910782  0.46147830  0.60026353     0.83500
C17         C  0.41083767  0.43470745  0.54928300     0.83100
O18         O  0.53708253  0.39850126  0.47958471    -0.78000
C19         C  0.43826744  0.54558076  0.40911962     0.83900
O20         O  0.55312049  0.43626198  0.57791307    -0.78100
C21         C  0.46620700  0.59653218  0.57828452     0.84100
C22         C  0.60364148  0.57254706  0.46152320     0.84400
O23         O  0.59463704  0.57590671  0.50302781    -0.80500
O24         O  0.06041047  0.41557383  0.46902591    -0.78000
C25         C  0.96082532  0.40932195  0.57957575     0.83000
O26         O  0.92879968  0.50116189  0.42479113    -0.79200
O27         O  0.93378326  0.55209701  0.57663168    -0.80600
O28         O  0.09442144  0.54345960  0.56296379    -0.80400
O29         O  0.11087939  0.46957880  0.47819657    -0.79100
Zn30       Zn  0.00039683  0.43949863  0.49098215     1.55700
O31         O  0.03780122  0.53310126  0.61064257    -0.80500
Cd32       Cd  0.06992640  0.52014329  0.50316954     1.59700
Cd33       Cd  0.96565210  0.54070020  0.46927506     1.59600
O34         O  0.07517001  0.57275422  0.46007640    -0.80500
O35         O  0.00520097  0.50160277  0.50797081    -1.91000
Cd36       Cd  0.98655369  0.50776954  0.57121784     1.59900
O37         O  0.00563148  0.58574284  0.43353816    -0.80400
O38         O  0.96364024  0.44827213  0.59630543    -0.79100
C39         C  0.93080393  0.45910647  0.41813866     0.83500
C40         C  0.10074321  0.43026668  0.46538921     0.83100
O41         O  0.97537077  0.40099240  0.54056187    -0.78000
C42         C  0.07742053  0.54735132  0.60174954     0.83900
O43         O  0.95651373  0.43383810  0.44086740    -0.78100
C44         C  0.04804558  0.59420678  0.43510314     0.84100
C45         C  0.91232452  0.57736687  0.54998210     0.84400
O46         O  0.92030808  0.57769996  0.50827059    -0.80500
O47         O  0.46020043  0.59818777  0.96719605    -0.78000
C48         C  0.55630808  0.60825646  0.07725737     0.83000
O49         O  0.58939812  0.50880603  0.92261765    -0.79200
O50         O  0.58754205  0.46590442  0.07683718    -0.80600
O51         O  0.42607509  0.47149283  0.06606668    -0.80400
O52         O  0.40896365  0.54585814  0.98140525    -0.79100
Zn53       Zn  0.52030986  0.57408659  0.98836308     1.55700
O54         O  0.48390947  0.48074318  0.11233409    -0.80500
Cd55       Cd  0.44939298  0.49460753  0.00546237     1.59700
Cd56       Cd  0.55261853  0.47120559  0.96966224     1.59600
O57         O  0.44158775  0.44199975  0.96236796    -0.80500
O58         O  0.51448588  0.51250390  0.00795724    -1.91000
Cd59       Cd  0.53335883  0.50843262  0.07142159     1.59900
O60         O  0.51044118  0.42569861  0.93594672    -0.80400
O61         O  0.55283605  0.57000366  0.09528946    -0.79100
C62         C  0.58800954  0.55063804  0.91426177     0.83500
C63         C  0.41945269  0.58422882  0.96626946     0.83100
O64         O  0.54539692  0.61461391  0.03675421    -0.78000
C65         C  0.44393647  0.46685026  0.10436242     0.83900
O66         O  0.56294535  0.57720516  0.93648610    -0.78100
C67         C  0.46762131  0.41891179  0.93753730     0.84100
C68         C  0.60741366  0.43812873  0.05130534     0.84400
O69         O  0.59784976  0.43505380  0.00996737    -0.80500
O70         O  0.47394484  0.03928930  0.60959532    -0.78000
C71         C  0.54721745  0.91273084  0.57954464     0.83000
O72         O  0.59314679  0.07935747  0.50882029    -0.79200
O73         O  0.55126643  0.93871805  0.43528643    -0.80600
O74         O  0.39961666  0.97723686  0.47843100    -0.80400
O75         O  0.41548034  0.04930317  0.56404827    -0.79100
Zn76       Zn  0.52327509  0.01191687  0.57101149     1.55700
O77         O  0.44700395  0.91958237  0.47142945    -0.80500
Cd78       Cd  0.44038211  0.02768658  0.50353966     1.59700
Cd79       Cd  0.54457525  0.04654054  0.46988707     1.59600
O80         O  0.43509552  0.08078785  0.46017812    -0.80500
O81         O  0.50493825  0.00801843  0.50907665    -1.91000
Cd82       Cd  0.50940420  0.94427370  0.49000777     1.59900
O83         O  0.50534381  0.09372587  0.43548961    -0.80400
O84         O  0.53631583  0.90406622  0.53947917    -0.79100
C85         C  0.60106771  0.07671161  0.55046243     0.83500
C86         C  0.43346103  0.05248989  0.60235802     0.83100
O87         O  0.54249578  0.95183737  0.59558103    -0.78000
C88         C  0.40768750  0.93681779  0.46762387     0.83900
O89         O  0.57739452  0.05198765  0.57587402    -0.78100
C90         C  0.46283956  0.10225417  0.43579053     0.84100
C91         C  0.57626152  0.96553902  0.41341095     0.84400
O92         O  0.57811570  0.00712632  0.42260354    -0.80500
O93         O  0.05300500  0.59822611  0.05046540    -0.78000
C94         C  0.95965833  0.60718163  0.93885131     0.83000
O95         O  0.92802234  0.50711689  0.09531206    -0.79200
O96         O  0.92616444  0.46733554  0.93893596    -0.80600
O97         O  0.09056852  0.47230132  0.95252461    -0.80400
O98         O  0.10552834  0.54684376  0.03749394    -0.79100
Zn99       Zn  0.99399821  0.57329923  0.02829518     1.55700
O100        O  0.03194367  0.47830830  0.90653070    -0.80500
Cd101      Cd  0.06582287  0.49565167  0.01248833     1.59700
Cd102      Cd  0.96232252  0.47000479  0.04628112     1.59600
O103        O  0.07313561  0.44307549  0.05498902    -0.80500
O104        O  0.00038256  0.51193796  0.00889014    -1.91000
Cd105      Cd  0.98205767  0.50762233  0.94534855     1.59900
O106        O  0.00427249  0.42195590  0.07728462    -0.80400
O107        O  0.96447255  0.56919359  0.92031060    -0.79100
C108        C  0.92819948  0.54907042  0.10314486     0.83500
C109        C  0.09394979  0.58502069  0.05246342     0.83100
O110        O  0.96978960  0.61317315  0.97954025    -0.78000
C111        C  0.07234055  0.46572877  0.91469463     0.83900
O112        O  0.95140173  0.57619845  0.07991436    -0.78100
C113        C  0.04742276  0.41688061  0.07656054     0.84100
C114        C  0.90445832  0.44108878  0.96448331     0.84400
O115        O  0.91409767  0.43758333  0.00579936    -0.80500
O116        O  0.04497988  0.02977306  0.40314723    -0.78000
C117        C  0.97068297  0.90702713  0.44166012     0.83000
O118        O  0.92573302  0.07770359  0.50046208    -0.79200
O119        O  0.96641165  0.93935920  0.58023792    -0.80600
O120        O  0.12000035  0.97716691  0.53717751    -0.80400
O121        O  0.10202133  0.04597095  0.44850481    -0.79100
Zn122      Zn  0.99591235  0.00582354  0.44370826     1.55700
O123        O  0.07303843  0.92050950  0.55062879    -0.80500
Cd124      Cd  0.07807677  0.02533860  0.50967399     1.59700
Cd125      Cd  0.97306528  0.04572186  0.54216412     1.59600
O126        O  0.08254100  0.07867265  0.55219310    -0.80500
O127        O  0.01381651  0.00534043  0.50558376    -1.91000
Cd128      Cd  0.01083499  0.94270252  0.52793440     1.59900
O129        O  0.01253990  0.09265501  0.57718390    -0.80400
O130        O  0.98467375  0.89939306  0.48089433    -0.79100
C131        C  0.91812438  0.07197360  0.45898526     0.83500
C132        C  0.08422033  0.04611014  0.40990040     0.83100
O133        O  0.97474133  0.94539961  0.42393304    -0.78000
C134        C  0.11212347  0.93849061  0.55285075     0.83900
O135        O  0.94259774  0.04598371  0.43569975    -0.78100
C136        C  0.05514980  0.10080990  0.57640030     0.84100
C137        C  0.93917510  0.96639580  0.59909019     0.84400
O138        O  0.93648847  0.00752398  0.58823882    -0.80500
O139        O  0.47409433  0.97573268  0.90589877    -0.78000
C140        C  0.54712883  0.10066945  0.93816669     0.83000
O141        O  0.58939914  0.92811765  0.00591853    -0.79200
O142        O  0.55423753  0.07062960  0.08049981    -0.80600
O143        O  0.40085186  0.03554156  0.03806229    -0.80400
O144        O  0.41527443  0.96593079  0.95107449    -0.79100
Zn145      Zn  0.52364190  0.00103461  0.94529778     1.55700
O146        O  0.44968280  0.09106643  0.04948555    -0.80500
Cd147      Cd  0.44057513  0.98550521  0.01167274     1.59700
Cd148      Cd  0.54361477  0.96351210  0.04616145     1.59600
O149        O  0.43330607  0.93209854  0.05387106    -0.80500
O150        O  0.50541888  0.00378116  0.00719581    -1.91000
Cd151      Cd  0.51095870  0.06696968  0.02734233     1.59900
O152        O  0.50233646  0.91805835  0.08078266    -0.80400
O153        O  0.53603004  0.10891374  0.97829292    -0.79100
C154        C  0.59776653  0.93187845  0.96440811     0.83500
C155        C  0.43338713  0.96316934  0.91279245     0.83100
O156        O  0.54351809  0.06147635  0.92206957    -0.78000
C157        C  0.41008014  0.07442493  0.05238321     0.83900
O158        O  0.57606946  0.95904372  0.93978203    -0.78100
C159        C  0.45974201  0.91021995  0.07921383     0.84100
C160        C  0.57890499  0.04329807  0.10202594     0.84400
O161        O  0.57989172  0.00158346  0.09298345    -0.80500
O162        O  0.04185237  0.98097156  0.11081257    -0.78000
C163        C  0.96884317  0.10566959  0.07880670     0.83000
O164        O  0.92167129  0.93890332  0.01132882    -0.79200
O165        O  0.96658923  0.08055019  0.93841966    -0.80600
O166        O  0.11840957  0.03742233  0.97974994    -0.80400
O167        O  0.09846554  0.96545675  0.06446581    -0.79100
Zn168      Zn  0.99252114  0.00668530  0.07172303     1.55700
O169        O  0.07322088  0.09618025  0.97021567    -0.80500
Cd170      Cd  0.07501822  0.98889147  0.00442397     1.59700
Cd171      Cd  0.96981457  0.97231844  0.97145220     1.59600
O172        O  0.07839330  0.93690634  0.96010007    -0.80500
O173        O  0.01115455  0.01000129  0.00997489    -1.91000
Cd174      Cd  0.01011972  0.07383541  0.99107908     1.59900
O175        O  0.00826841  0.92594741  0.93424025    -0.80400
O176        O  0.98415058  0.11492781  0.04035326    -0.79100
C177        C  0.91430402  0.94201135  0.05314001     0.83500
C178        C  0.08095378  0.96446181  0.10320759     0.83100
O179        O  0.97153758  0.06630356  0.09452980    -0.78000
C180        C  0.11192651  0.07736083  0.96678929     0.83900
O181        O  0.93891289  0.96629693  0.07794922    -0.78100
C182        C  0.05065831  0.91664663  0.93477094     0.84100
C183        C  0.93917111  0.05512498  0.91786464     0.84400
O184        O  0.93507032  0.01371700  0.92710055    -0.80500
O185        O  0.78655349  0.65753247  0.23040174    -0.78000
C186        C  0.70972933  0.69057742  0.35250758     0.83000
O187        O  0.67426140  0.76402235  0.18326395    -0.79200
O188        O  0.70923483  0.83367590  0.32734230    -0.80600
O189        O  0.86223224  0.78718951  0.29267974    -0.80400
O190        O  0.84644778  0.70158084  0.22190060    -0.79100
Zn191      Zn  0.73695874  0.69856827  0.25427928     1.55700
O192        O  0.81365584  0.79879853  0.34810415    -0.80500
Cd193      Cd  0.82239788  0.76316388  0.24148510     1.59700
Cd194      Cd  0.72068459  0.80153943  0.21991072     1.59600
O195        O  0.83081075  0.80543662  0.18790583    -0.80500
O196        O  0.75725481  0.76014264  0.25919166    -1.91000
Cd197      Cd  0.75168968  0.77926688  0.32263159     1.59900
O198        O  0.76275052  0.83515647  0.17456261    -0.80400
O199        O  0.72362790  0.72962189  0.36218261    -0.79100
C200        C  0.66520861  0.72240286  0.18452071     0.83500
C201        C  0.82776186  0.66346873  0.21880256     0.83100
O202        O  0.71364730  0.67499035  0.31319462    -0.78000
C203        C  0.85361595  0.80075515  0.33190714     0.83900
O204        O  0.68579407  0.69570053  0.21053109    -0.78100
C205        C  0.80504476  0.83133252  0.16581129     0.84100
C206        C  0.68516112  0.85622584  0.30033809     0.84400
O207        O  0.68497263  0.84830056  0.25858764    -0.80500
O208        O  0.81019590  0.29211562  0.67377598    -0.78000
C209        C  0.71364313  0.17994844  0.66657241     0.83000
O210        O  0.68044891  0.34250174  0.75504705    -0.79200
O211        O  0.67871646  0.18881881  0.80735860    -0.80600
O212        O  0.84137655  0.20097749  0.80325838    -0.80400
O213        O  0.85836082  0.28527930  0.72997767    -0.79100
Zn214      Zn  0.74977070  0.27088406  0.69653712     1.55700
O215        O  0.78390399  0.15367279  0.79482911    -0.80500
Cd216      Cd  0.81691340  0.26104263  0.77984865     1.61300
Cd217      Cd  0.71281507  0.29627251  0.79662352     1.59600
O218        O  0.82167068  0.30589148  0.83162798    -0.80500
O219        O  0.75284071  0.25585781  0.75929700    -1.91000
Cd220      Cd  0.73384539  0.19245938  0.76594851     1.59900
O221        O  0.75182220  0.33269516  0.84247539    -0.80400
O222        O  0.71508939  0.16465472  0.70596244    -0.79100
C223        C  0.68412025  0.34848074  0.71314107     0.83500
C224        C  0.84955737  0.29738927  0.69040533     0.83100
O225        O  0.72620065  0.21979430  0.65810805    -0.78000
C226        C  0.82390395  0.16240167  0.80809787     0.83900
O227        O  0.70835250  0.32310736  0.68885939    -0.78100
C228        C  0.79411052  0.33174261  0.85175942     0.84100
C229        C  0.65632031  0.21611921  0.83133173     0.84400
O230        O  0.66473177  0.25800382  0.83171859    -0.80500
O231        O  0.20200867  0.79547838  0.84418231    -0.78000
C232        C  0.30016566  0.68380891  0.85204516     0.83000
O233        O  0.33567099  0.83790500  0.75884879    -0.79200
O234        O  0.33203339  0.68372471  0.71224423    -0.80600
O235        O  0.16908886  0.70177881  0.71549244    -0.80400
O236        O  0.15274263  0.78852474  0.78888634    -0.79100
Zn237      Zn  0.26263597  0.77377495  0.82060540     1.55700
O238        O  0.22565989  0.65367526  0.72633497    -0.80500
Cd239      Cd  0.19427758  0.76190595  0.73923196     1.59700
Cd240      Cd  0.30052538  0.79209895  0.71982176     1.59600
O241        O  0.19153447  0.80620558  0.68732558    -0.80500
O242        O  0.25880483  0.75556427  0.75878656    -1.91000
Cd243      Cd  0.27678158  0.69165902  0.75355866     1.59900
O244        O  0.26266302  0.82817660  0.67352003    -0.80400
O245        O  0.29612151  0.66618949  0.81382581    -0.79100
C246        C  0.33213195  0.84685581  0.80016959     0.83500
C247        C  0.16218113  0.80044538  0.82852737     0.83100
O248        O  0.28826905  0.72415975  0.85933300    -0.78000
C249        C  0.18621932  0.66278243  0.71179072     0.83900
O250        O  0.30529500  0.82558266  0.82564853    -0.78100
C251        C  0.22015238  0.82925351  0.66554062     0.84100
C252        C  0.35512721  0.70955018  0.68748271     0.84400
O253        O  0.34743610  0.75150717  0.68588441    -0.80500
O254        O  0.20146080  0.21656274  0.67616117    -0.78000
C255        C  0.29911368  0.32803547  0.66442069     0.83000
O256        O  0.33705623  0.17697680  0.75949104    -0.79200
O257        O  0.32982417  0.33234356  0.80568571    -0.80600
O258        O  0.16813109  0.31187401  0.80256488    -0.80400
O259        O  0.15313204  0.22291496  0.73248981    -0.79100
Zn260      Zn  0.26165714  0.23947613  0.69858798     1.55700
O261        O  0.22268882  0.36126896  0.78906148    -0.80500
Cd262      Cd  0.19455173  0.25167621  0.78076404     1.59700
Cd263      Cd  0.30113126  0.22270854  0.79888788     1.59600
O264        O  0.19298547  0.20974071  0.83458392    -0.80500
O265        O  0.25859778  0.25869944  0.76009885    -1.91000
Cd266      Cd  0.27538971  0.32318059  0.76346969     1.59900
O267        O  0.26420762  0.18730008  0.84692990    -0.80400
O268        O  0.29567729  0.34694180  0.70224734    -0.79100
C269        C  0.33293521  0.16786327  0.71821463     0.83500
C270        C  0.16219546  0.21052329  0.69292330     0.83100
O271        O  0.28593055  0.28803414  0.65838176    -0.78000
C272        C  0.18367827  0.35154141  0.80450543     0.83900
O273        O  0.30513646  0.18859325  0.69335850    -0.78100
C274        C  0.22192805  0.18712995  0.85640319     0.84100
C275        C  0.35347526  0.30688870  0.83040503     0.84400
O276        O  0.34705959  0.26474021  0.83186691    -0.80500
O277        O  0.22626834  0.85636662  0.23033733    -0.78000
C278        C  0.29716973  0.82838574  0.35470774     0.83000
O279        O  0.34018854  0.75535364  0.18548996    -0.79200
O280        O  0.30738476  0.68457707  0.32962911    -0.80600
O281        O  0.15090714  0.72620635  0.29576745    -0.80400
O282        O  0.16559938  0.81322538  0.22417111    -0.79100
Zn283      Zn  0.27507297  0.81730296  0.25638923     1.55700
O284        O  0.20055778  0.71409171  0.35015787    -0.80500
Cd285      Cd  0.19066351  0.75262265  0.24558981     1.59700
Cd286      Cd  0.29397153  0.71635950  0.22180478     1.59600
O287        O  0.18346717  0.71075844  0.19255556    -0.80500
O288        O  0.25610141  0.75589930  0.26194886    -1.91000
Cd289      Cd  0.26189098  0.73690442  0.32533026     1.59900
O290        O  0.25186241  0.68293064  0.17646111    -0.80400
O291        O  0.28556024  0.78872932  0.36506808    -0.79100
C292        C  0.34888755  0.79703851  0.18811239     0.83500
C293        C  0.18539267  0.85050782  0.21828734     0.83100
O294        O  0.29443980  0.84208216  0.31488442    -0.78000
C295        C  0.16049238  0.71185366  0.33446900     0.83900
O296        O  0.32759969  0.82250962  0.21481693    -0.78100
C297        C  0.20918716  0.68571821  0.16940846     0.84100
C298        C  0.33130713  0.66238540  0.30200686     0.84400
O299        O  0.33035522  0.66992932  0.26018533    -0.80500
O300        O  0.77949597  0.35366425  0.29481452    -0.78000
C301        C  0.71091631  0.32531194  0.16729033     0.83000
O302        O  0.66737183  0.24564400  0.33356596    -0.79200
O303        O  0.70755883  0.18040357  0.18841334    -0.80600
O304        O  0.85978410  0.22727801  0.22741807    -0.80400
O305        O  0.84049371  0.31063205  0.30123165    -0.79100
Zn306      Zn  0.73216236  0.31332683  0.26639785     1.55700
O307        O  0.81197683  0.21485087  0.17165053    -0.80500
Cd308      Cd  0.81814558  0.24996813  0.27793730     1.59700
Cd309      Cd  0.71628507  0.20957234  0.29740509     1.59600
O310        O  0.82639974  0.20604621  0.32946152    -0.80500
O311        O  0.75320479  0.25224223  0.25979691    -1.91000
Cd312      Cd  0.74950933  0.23475337  0.19577130     1.59900
O313        O  0.75856356  0.17562731  0.34243309    -0.80400
O314        O  0.72392141  0.28607141  0.15678556    -0.79100
C315        C  0.65730664  0.28712495  0.33202840     0.83500
C316        C  0.82039711  0.34782780  0.30716952     0.83100
O317        O  0.71260278  0.33904954  0.20734547    -0.78000
C318        C  0.85165324  0.21311388  0.18835316     0.83900
O319        O  0.67877259  0.31438048  0.30739506    -0.78100
C320        C  0.80090178  0.17944524  0.35083588     0.84100
C321        C  0.68425151  0.15609623  0.21453469     0.84400
O322        O  0.68352819  0.16263288  0.25654331    -0.80500
O323        O  0.22869764  0.15669860  0.28447040    -0.78000
C324        C  0.29946033  0.18736983  0.16155976     0.83000
O325        O  0.34643950  0.25828784  0.32767159    -0.79200
O326        O  0.30719548  0.32812867  0.18511817    -0.80600
O327        O  0.15142652  0.28836739  0.22334649    -0.80400
O328        O  0.16864110  0.20035873  0.29404280    -0.79100
Zn329      Zn  0.27768227  0.19648819  0.25998233     1.55700
O330        O  0.20006653  0.30030491  0.16844655    -0.80500
Cd331      Cd  0.19309705  0.26175724  0.27294356     1.59700
Cd332      Cd  0.29864702  0.29750089  0.29308676     1.59600
O333        O  0.18881773  0.30373024  0.32656845    -0.80500
O334        O  0.25833735  0.25801058  0.25515394    -1.91000
Cd335      Cd  0.26155955  0.27693634  0.19186759     1.59900
O336        O  0.25801175  0.33113589  0.33997162    -0.80400
O337        O  0.28419869  0.22578753  0.15166872    -0.79100
C338        C  0.35369063  0.21622612  0.32626947     0.83500
C339        C  0.18807276  0.16244509  0.29756407     0.83100
O340        O  0.29838317  0.17302513  0.20133626    -0.78000
C341        C  0.16005993  0.30290611  0.18445949     0.83900
O342        O  0.33025028  0.19077107  0.30146155    -0.78100
C343        C  0.21557980  0.32860947  0.34870821     0.84100
C344        C  0.33222122  0.35102412  0.21088713     0.84400
O345        O  0.33370182  0.34382463  0.25279205    -0.80500
O346        O  0.81535785  0.72418839  0.84029789    -0.78000
C347        C  0.71343870  0.83091355  0.84796112     0.83000
O348        O  0.68732792  0.67122845  0.75674102    -0.79200
O349        O  0.68321706  0.82605276  0.70784834    -0.80600
O350        O  0.84627469  0.81831160  0.71252350    -0.80400
O351        O  0.86497374  0.73371931  0.78556150    -0.79100
Zn352      Zn  0.75423077  0.74226269  0.81709033     1.55700
O353        O  0.78665146  0.86335924  0.72093531    -0.80500
Cd354      Cd  0.82320848  0.75718987  0.73535286     1.59700
Cd355      Cd  0.71944540  0.71934661  0.71674070     1.59600
O356        O  0.82933495  0.71354086  0.68279387    -0.80500
O357        O  0.75837385  0.75953531  0.75499496    -1.91000
Cd358      Cd  0.73795805  0.82252767  0.74925402     1.59900
O359        O  0.76009648  0.68635115  0.66994827    -0.80400
O360        O  0.71677724  0.84775527  0.80934603    -0.79100
C361        C  0.69025801  0.66396999  0.79850732     0.83500
C362        C  0.85553591  0.72103703  0.82486325     0.83100
O363        O  0.72659953  0.79110506  0.85579427    -0.78000
C364        C  0.82704710  0.85611917  0.70770682     0.83900
O365        O  0.71479592  0.68816766  0.82357867    -0.78100
C366        C  0.80249825  0.68820378  0.66126740     0.84100
C367        C  0.66134122  0.79887353  0.68352771     0.84400
O368        O  0.67053676  0.75715920  0.68238758    -0.80500
C369        C  0.94814769  0.13669884  0.15215258    -0.05300
C370        C  0.94511894  0.14021553  0.10571465     0.00600
C371        C  0.91466842  0.17180321  0.08688999    -0.08000
C372        C  0.88728221  0.19745192  0.11557804    -0.05400
C373        C  0.88830563  0.19181598  0.16187580     0.00600
C374        C  0.91983523  0.16137705  0.18075348    -0.07900
C375        C  0.92185527  0.15251458  0.23049940     0.62500
H376        H  0.97172039  0.11264878  0.16590310     0.13200
H377        H  0.86309949  0.22094655  0.10188629     0.13200
C378        C  0.90862824  0.17669992  0.03692881     0.62700
F379        F  0.95181092  0.11843370  0.24076166    -0.22400
F380        F  0.87947461  0.14013518  0.24599853    -0.19800
F381        F  0.93612254  0.19052112  0.25250862    -0.19400
F382        F  0.89688257  0.13601853  0.01843588    -0.19500
F383        F  0.94853328  0.19175083  0.01798814    -0.19800
F384        F  0.87475494  0.20695230  0.02638187    -0.22500
C385        C  0.11319383  0.88833356  0.19968238    -0.05300
C386        C  0.16054245  0.88655215  0.19460135     0.00600
C387        C  0.18177288  0.91490931  0.16295796    -0.08000
C388        C  0.15428113  0.94223649  0.13618475    -0.05400
C389        C  0.10671781  0.94174287  0.13916843     0.00600
C390        C  0.08565245  0.91521143  0.17240240    -0.07900
C391        C  0.03441180  0.91314145  0.17792283     0.62500
H392        H  0.09769441  0.86692817  0.22435088     0.13200
H393        H  0.16981041  0.96316585  0.11113421     0.13200
C394        C  0.23284051  0.91482306  0.15527082     0.62700
F395        F  0.02170401  0.88268689  0.21007592    -0.22400
F396        F  0.01432796  0.90022698  0.13842663    -0.19800
F397        F  0.01804645  0.95455310  0.19060553    -0.19400
F398        F  0.24741439  0.87219378  0.14464126    -0.19500
F399        F  0.25478252  0.92946429  0.19316327    -0.19800
F400        F  0.24539810  0.94271127  0.12073753    -0.22500
C401        C  0.15354339  0.14809578  0.95497996    -0.05300
C402        C  0.14929539  0.10246413  0.94505282     0.00600
C403        C  0.17633283  0.08365766  0.91053871    -0.08000
C404        C  0.20362127  0.11223724  0.88471516    -0.05400
C405        C  0.20429834  0.15835791  0.89219320     0.00600
C406        C  0.18099488  0.17643530  0.92921235    -0.07900
C407        C  0.18493236  0.22555013  0.94105735     0.62500
H408        H  0.13348084  0.16182068  0.98194059     0.13200
H409        H  0.22217591  0.09925838  0.85639336     0.13200
C410        C  0.17419782  0.03434805  0.89883426     0.62700
F411        F  0.16436590  0.23505801  0.98137380    -0.22400
F412        F  0.16452429  0.25145235  0.90877130    -0.19800
F413        F  0.23025289  0.23708935  0.94424211    -0.19400
F414        F  0.13001393  0.02241938  0.88901308    -0.19500
F415        F  0.18967776  0.00924280  0.93424999    -0.19800
F416        F  0.20080075  0.02406371  0.86225880    -0.22500
C417        C  0.09925817  0.85551084  0.83463338    -0.05300
C418        C  0.12714937  0.82383552  0.85585710     0.00600
C419        C  0.12366741  0.81859018  0.90264759    -0.08000
C420        C  0.09497319  0.84748121  0.92667758    -0.05400
C421        C  0.06992469  0.88131070  0.90582238     0.00600
C422        C  0.07115592  0.88498305  0.85894779    -0.07900
C423        C  0.04535268  0.92168874  0.83508561     0.62500
H424        H  0.10191873  0.85903172  0.79891327     0.13200
H425        H  0.09377147  0.84546958  0.96261702     0.13200
C426        C  0.15049325  0.78334426  0.92763427     0.62700
F427        F  0.05275696  0.92052696  0.78966242    -0.22400
F428        F  0.05914382  0.96296628  0.85059807    -0.19800
F429        F  0.99932886  0.91684997  0.84259054    -0.19400
F430        F  0.19566213  0.79550384  0.92981658    -0.19500
F431        F  0.14664804  0.74257269  0.90635177    -0.19800
F432        F  0.13479499  0.77817199  0.97071408    -0.22500
C433        C  0.89798313  0.12700561  0.82274159    -0.05300
C434        C  0.85109153  0.12774120  0.83105750     0.00600
C435        C  0.83272989  0.09951567  0.86449541    -0.08000
C436        C  0.86272896  0.07351620  0.89012574    -0.05400
C437        C  0.90980980  0.07562882  0.88386697     0.00600
C438        C  0.92782385  0.10138252  0.84863171    -0.07900
C439        C  0.97835239  0.10209300  0.83853275     0.62500
H440        H  0.91139147  0.14825970  0.79677098     0.13200
H441        H  0.84986567  0.05324777  0.91711591     0.13200
C442        C  0.78225881  0.09862897  0.87506394     0.62700
F443        F  0.98744264  0.12275906  0.79837501    -0.22400
F444        F  0.99479495  0.05887237  0.83616086    -0.19800
F445        F  0.00122007  0.12505779  0.87145152    -0.19400
F446        F  0.75854452  0.08234814  0.83890710    -0.19500
F447        F  0.76716697  0.14122469  0.88514884    -0.19800
F448        F  0.77259976  0.07149914  0.91105761    -0.22500
C449        C  0.82092810  0.90534741  0.13253898    -0.05300
C450        C  0.82591302  0.85885672  0.13024661     0.00600
C451        C  0.85369773  0.84002979  0.09648481    -0.08000
C452        C  0.87944359  0.86865020  0.06919741    -0.05400
C453        C  0.87827441  0.91509202  0.07484017     0.00600
C454        C  0.84673612  0.93401272  0.10532640    -0.07900
C455        C  0.83998874  0.98418357  0.10894941     0.62500
H456        H  0.79855206  0.91914715  0.15764736     0.13200
H457        H  0.90298338  0.85474391  0.04518796     0.13200
C458        C  0.85635464  0.78993121  0.08934482     0.62700
F459        F  0.80315067  0.99479450  0.13555989    -0.22400
F460        F  0.83229110  0.00183909  0.06717038    -0.19800
F461        F  0.87786938  0.00404467  0.12729337    -0.19400
F462        F  0.81304825  0.77228944  0.08724693    -0.19500
F463        F  0.87979539  0.77014826  0.12385633    -0.19800
F464        F  0.87847615  0.77941958  0.05008028    -0.22500
C465        C  0.67937427  0.09088803  0.16426557    -0.05300
C466        C  0.65715947  0.11982105  0.19409622     0.00600
C467        C  0.60931481  0.11798721  0.19805308    -0.08000
C468        C  0.58511691  0.08902174  0.16985309    -0.05400
C469        C  0.60714234  0.06230587  0.13800140     0.00600
C470        C  0.65509936  0.06193130  0.13604421    -0.07900
C471        C  0.68025316  0.03302926  0.10259689     0.62500
H472        H  0.71599466  0.09272079  0.16182518     0.13200
H473        H  0.54837008  0.08888137  0.17060571     0.13200
C474        C  0.58371717  0.14876909  0.22947241     0.62700
F475        F  0.72666813  0.03957974  0.10450784    -0.22400
F476        F  0.66608387  0.04304135  0.05994633    -0.19800
F477        F  0.67165812  0.98852693  0.11129161    -0.19400
F478        F  0.59320934  0.19277983  0.21922762    -0.19500
F479        F  0.59661000  0.14023470  0.27279012    -0.19800
F480        F  0.53721976  0.14287526  0.22664034    -0.22500
C481        C  0.32164319  0.11246387  0.13542563    -0.05300
C482        C  0.32090646  0.15866069  0.12720122     0.00600
C483        C  0.34556274  0.17598336  0.09039039    -0.08000
C484        C  0.37178599  0.14634677  0.06474139    -0.05400
C485        C  0.37475037  0.10084139  0.07502333     0.00600
C486        C  0.34889071  0.08319572  0.11057759    -0.07900
C487        C  0.35239197  0.03446103  0.12441712     0.62500
H488        H  0.30219717  0.09961358  0.16313746     0.13200
H489        H  0.39199566  0.15879140  0.03735305     0.13200
C490        C  0.34661388  0.22549633  0.07926794     0.62700
F491        F  0.32784912  0.02569423  0.16269546    -0.22400
F492        F  0.39723482  0.02350700  0.13264427    -0.19800
F493        F  0.33567879  0.00738101  0.09102844    -0.19400
F494        F  0.36269088  0.24951948  0.11524865    -0.19500
F495        F  0.30344601  0.23997683  0.06841916    -0.19800
F496        F  0.37463933  0.23453386  0.04343003    -0.22500
C497        C  0.40882418  0.84525858  0.08721836    -0.05300
C498        C  0.43892428  0.87531790  0.10760690     0.00600
C499        C  0.44266386  0.87574012  0.15455161    -0.08000
C500        C  0.41506356  0.84667812  0.17948239    -0.05400
C501        C  0.38351718  0.81807585  0.15916871     0.00600
C502        C  0.38066103  0.81675141  0.11219584    -0.07900
C503        C  0.34601966  0.78764279  0.08866009     0.62500
H504        H  0.40612279  0.84578226  0.05131574     0.13200
H505        H  0.41623684  0.84760602  0.21546172     0.13200
C506        C  0.47313559  0.90884022  0.17838055     0.62700
F507        F  0.34699787  0.79359206  0.04304193    -0.22400
F508        F  0.30280057  0.79808713  0.10344221    -0.19800
F509        F  0.35497322  0.74319915  0.09732494    -0.19400
F510        F  0.46140391  0.95191376  0.16645384    -0.19500
F511        F  0.51790898  0.90097571  0.16703972    -0.19800
F512        F  0.46936978  0.90548988  0.22413115    -0.22500
C513        C  0.66425060  0.92731671  0.91533506    -0.05300
C514        C  0.63345890  0.90465950  0.94273416     0.00600
C515        C  0.63322525  0.85739639  0.94300125    -0.08000
C516        C  0.66247070  0.83444975  0.91364848    -0.05400
C517        C  0.69075517  0.85728608  0.88358643     0.00600
C518        C  0.69310862  0.90461349  0.88573988    -0.07900
C519        C  0.72503888  0.93162283  0.85658808     0.62500
H520        H  0.66389495  0.96349169  0.91573154     0.13200
H521        H  0.66128625  0.79836106  0.91201279     0.13200
C522        C  0.60025074  0.83144117  0.97187438     0.62700
F523        F  0.72911964  0.97516007  0.87156155    -0.22400
F524        F  0.70873377  0.93305306  0.81354313    -0.19800
F525        F  0.76788259  0.91267067  0.85682569    -0.19400
F526        F  0.55616328  0.84361376  0.96170454    -0.19500
F527        F  0.60860961  0.84044212  0.01618101    -0.19800
F528        F  0.60429403  0.78580921  0.96558265    -0.22500
C529        C  0.59654088  0.16750947  0.93148737    -0.05300
C530        C  0.56739829  0.13678551  0.91057077     0.00600
C531        C  0.56096242  0.13965306  0.86389954    -0.08000
C532        C  0.58829552  0.16918647  0.83935343    -0.05400
C533        C  0.62052850  0.19671410  0.85991265     0.00600
C534        C  0.62332787  0.19761578  0.90684408    -0.07900
C535        C  0.65627087  0.22841835  0.93050462     0.62500
H536        H  0.60024439  0.16598655  0.96724521     0.13200
H537        H  0.58632928  0.16934725  0.80339614     0.13200
C538        C  0.52562452  0.11188661  0.83975525     0.62700
F539        F  0.65424417  0.22353164  0.97620732    -0.22400
F540        F  0.64585797  0.27228853  0.92050452    -0.19800
F541        F  0.70019763  0.21926447  0.91696535    -0.19400
F542        F  0.48474453  0.11382138  0.86237574    -0.19500
F543        F  0.53988274  0.06801927  0.83665949    -0.19800
F544        F  0.51821431  0.12745940  0.79707615    -0.22500
C545        C  0.43102279  0.90929852  0.85062505    -0.05300
C546        C  0.40780534  0.94098075  0.87665265     0.00600
C547        C  0.36037810  0.94661196  0.87095132    -0.08000
C548        C  0.33708361  0.91662108  0.84322652    -0.05400
C549        C  0.35985881  0.88247023  0.82030543     0.00600
C550        C  0.40772276  0.87968480  0.82241674    -0.07900
C551        C  0.43365908  0.84392070  0.79711776     0.62500
H552        H  0.46737903  0.90594266  0.85473580     0.13200
H553        H  0.30044368  0.91849011  0.84065513     0.13200
C554        C  0.33429253  0.98392313  0.89382499     0.62700
F555        F  0.47982157  0.84587116  0.80533649    -0.22400
F556        F  0.42709011  0.84952265  0.75198041    -0.19800
F557        F  0.41843396  0.80209549  0.80953216    -0.19400
F558        F  0.35777054  0.02367207  0.88979251    -0.19500
F559        F  0.32828136  0.97409537  0.93830400    -0.19800
F560        F  0.29189068  0.98992063  0.87500330    -0.22500
C561        C  0.12747585  0.19608633  0.61951043    -0.05300
C562        C  0.12743723  0.18733563  0.66536860     0.00600
C563        C  0.09871639  0.15314762  0.68222323    -0.08000
C564        C  0.07228986  0.12812678  0.65206316    -0.05400
C565        C  0.07494277  0.13508696  0.60606048     0.00600
C566        C  0.10213375  0.17023503  0.58942359    -0.07900
C567        C  0.10486684  0.18015253  0.54000562     0.62500
H568        H  0.14931132  0.22230558  0.60710842     0.13200
H569        H  0.05153361  0.10082595  0.66391992     0.13200
C570        C  0.09810931  0.14083965  0.73120262     0.62700
F571        F  0.12845862  0.21915166  0.53173568    -0.22400
F572        F  0.06160345  0.18487299  0.52285966    -0.19800
F573        F  0.12697568  0.14586176  0.51806396    -0.19400
F574        F  0.08124503  0.17612371  0.75589286    -0.19500
F575        F  0.14160372  0.13070076  0.74526576    -0.19800
F576        F  0.07104288  0.10402884  0.73945290    -0.22500
C577        C  0.15711391  0.06620222  0.37462146    -0.05300
C578        C  0.10955447  0.06816901  0.37319984     0.00600
C579        C  0.08827400  0.09606912  0.34121832    -0.08000
C580        C  0.11562729  0.12437012  0.31518325    -0.05400
C581        C  0.16309266  0.12521870  0.31941416     0.00600
C582        C  0.18451691  0.09395576  0.34815602    -0.07900
C583        C  0.23582049  0.09104949  0.35301625     0.62500
H584        H  0.17272654  0.04379002  0.39832464     0.13200
H585        H  0.09991812  0.14745857  0.29219814     0.13200
C586        C  0.03702301  0.09780406  0.33567855     0.62700
F587        F  0.24867866  0.05963710  0.38427171    -0.22400
F588        F  0.25298316  0.13183964  0.36643407    -0.19800
F589        F  0.25508051  0.07877504  0.31285400    -0.19400
F590        F  0.01666949  0.11033588  0.37524161    -0.19500
F591        F  0.02123319  0.05628202  0.32286892    -0.19800
F592        F  0.02400770  0.12818789  0.30350064    -0.22500
C593        C  0.86372494  0.93802902  0.61860021    -0.05300
C594        C  0.90801754  0.94754809  0.63240862     0.00600
C595        C  0.92383014  0.93117908  0.67363996    -0.08000
C596        C  0.89529798  0.90330994  0.69884990    -0.05400
C597        C  0.85187382  0.89160204  0.68382419     0.00600
C598        C  0.83531568  0.90973724  0.64341398    -0.07900
C599        C  0.78936158  0.89645860  0.62480497     0.62500
H600        H  0.85272363  0.95049887  0.58660117     0.13200
H601        H  0.90728608  0.88907502  0.72975229     0.13200
C602        C  0.97079864  0.94292169  0.69050084     0.62700
F603        F  0.78164111  0.91486377  0.58331391    -0.22400
F604        F  0.75524792  0.91094577  0.65294630    -0.19800
F605        F  0.78718851  0.85052826  0.62059814    -0.19400
F606        F  0.97540867  0.98883341  0.69210936    -0.19500
F607        F  0.00355411  0.92539504  0.66250784    -0.19800
F608        F  0.97825449  0.92627112  0.73272827    -0.22500
C609        C  0.82579166  0.10525724  0.37649951    -0.05300
C610        C  0.82264305  0.15109679  0.38488613     0.00600
C611        C  0.84581364  0.16963392  0.42174764    -0.08000
C612        C  0.87434880  0.14193300  0.44725654    -0.05400
C613        C  0.88108705  0.09684781  0.43622954     0.00600
C614        C  0.85480543  0.07758165  0.40143020    -0.07900
C615        C  0.85806593  0.02840094  0.38925785     0.62500
H616        H  0.80771986  0.09179067  0.34817672     0.13200
H617        H  0.89386958  0.15607056  0.47427198     0.13200
C618        C  0.84084820  0.21866866  0.43358942     0.62700
F619        F  0.82190761  0.01511702  0.36307204    -0.22400
F620        F  0.85770039  0.00243499  0.42724188    -0.19800
F621        F  0.89760599  0.02055206  0.36566679    -0.19400
F622        F  0.79532290  0.22965133  0.43655408    -0.19500
F623        F  0.86112454  0.24478335  0.40138141    -0.19800
F624        F  0.86095479  0.22847081  0.47396545    -0.22500
C625        C  0.15673505  0.86967895  0.56458958    -0.05300
C626        C  0.14832822  0.91419292  0.57664170     0.00600
C627        C  0.16951290  0.93234299  0.61497057    -0.08000
C628        C  0.19653875  0.90416435  0.64141219    -0.05400
C629        C  0.20213304  0.85894198  0.63091068     0.00600
C630        C  0.18359131  0.84162644  0.59122304    -0.07900
C631        C  0.19153603  0.79340537  0.57786112     0.62500
H632        H  0.14034982  0.85649768  0.53517425     0.13200
H633        H  0.21110416  0.91645365  0.67209953     0.13200
C634        C  0.16103504  0.98022024  0.62966957     0.62700
F635        F  0.17459028  0.78445603  0.53596139    -0.22400
F636        F  0.17051816  0.76518868  0.60778813    -0.19800
F637        F  0.23761948  0.78454152  0.57740251    -0.19400
F638        F  0.11499656  0.98732397  0.63552869    -0.19500
F639        F  0.17733008  0.00933057  0.59784363    -0.19800
F640        F  0.18250737  0.98995865  0.66940902    -0.22500
C641        C  0.95365058  0.87177983  0.36972718    -0.05300
C642        C  0.94706590  0.87184243  0.41586489     0.00600
C643        C  0.91344024  0.84367139  0.43464337    -0.08000
C644        C  0.88580887  0.81856438  0.40584773    -0.05400
C645        C  0.89009640  0.82118038  0.35935910     0.00600
C646        C  0.92563763  0.84732110  0.34086817    -0.07900
C647        C  0.93287924  0.85189891  0.29104417     0.62500
H648        H  0.97997164  0.89304117  0.35625912     0.13200
H649        H  0.85912504  0.79788274  0.41950652     0.13200
C650        C  0.90476553  0.84178353  0.48445336     0.62700
F651        F  0.96729065  0.88163344  0.28120750    -0.22400
F652        F  0.89371632  0.86755443  0.27107113    -0.19800
F653        F  0.94470185  0.81096926  0.27307724    -0.19400
F654        F  0.89455849  0.88397578  0.50039191    -0.19500
F655        F  0.94285950  0.82556075  0.50584188    -0.19800
F656        F  0.86880004  0.81402424  0.49496441    -0.22500
C657        C  0.15521998  0.68275512  0.10732870    -0.05300
C658        C  0.18719245  0.65996141  0.13340346     0.00600
C659        C  0.19164397  0.61315780  0.12904767    -0.08000
C660        C  0.16254567  0.59056478  0.09956121    -0.05400
C661        C  0.12811374  0.61293342  0.07594947     0.00600
C662        C  0.12511949  0.66022395  0.07894471    -0.07900
C663        C  0.08986756  0.68724839  0.05363646     0.62500
H664        H  0.15235366  0.71860023  0.11130774     0.13200
H665        H  0.16466107  0.55457996  0.09696319     0.13200
C666        C  0.22463902  0.58683481  0.15754737     0.62700
F667        F  0.09906251  0.73254477  0.05507946    -0.22400
F668        F  0.04741493  0.68086408  0.07220586    -0.19800
F669        F  0.08928826  0.67442655  0.00945939    -0.19400
F670        F  0.21598124  0.59494092  0.20204612    -0.19500
F671        F  0.26861602  0.59937889  0.14764532    -0.19800
F672        F  0.22099889  0.54132766  0.15041495    -0.22500
C673        C  0.13275428  0.32859841  0.11082269    -0.05300
C674        C  0.12408646  0.32482629  0.15668081     0.00600
C675        C  0.08402797  0.34518776  0.17412570    -0.08000
C676        C  0.05779806  0.37297164  0.14609444    -0.05400
C677        C  0.06974780  0.38021759  0.10158456     0.00600
C678        C  0.10606751  0.35538071  0.08285996    -0.07900
C679        C  0.11723962  0.35724021  0.03350667     0.62500
H680        H  0.16197135  0.31158570  0.09692257     0.13200
H681        H  0.02908595  0.39126805  0.15937186     0.13200
C682        C  0.06928951  0.33913876  0.22207385     0.62700
F683        F  0.14478135  0.32199695  0.02075620    -0.22400
F684        F  0.13977388  0.39644368  0.02369492    -0.19800
F685        F  0.07779514  0.35483435  0.00871787    -0.19400
F686        F  0.10169199  0.35653469  0.25041158    -0.19500
F687        F  0.06309458  0.29425208  0.23086325    -0.19800
F688        F  0.02864615  0.36059223  0.23074130    -0.22500
C689        C  0.14602339  0.44748617  0.87977386    -0.05300
C690        C  0.09885920  0.44111539  0.88044051     0.00600
C691        C  0.07942742  0.40784498  0.85267476    -0.08000
C692        C  0.10843071  0.38144739  0.82624924    -0.05400
C693        C  0.15585019  0.38631591  0.82724467     0.00600
C694        C  0.17511583  0.42051611  0.85405369    -0.07900
C695        C  0.22610171  0.42744365  0.85769940     0.62500
H696        H  0.16013732  0.47315534  0.90098597     0.13200
H697        H  0.09424069  0.35545430  0.80549059     0.13200
C698        C  0.02874017  0.39818927  0.85251798     0.62700
F699        F  0.23696900  0.45978306  0.88876909    -0.22400
F700        F  0.24331020  0.44100778  0.81713236    -0.19800
F701        F  0.24698504  0.38819079  0.87069076    -0.19400
F702        F  0.00535785  0.43471169  0.83625029    -0.19500
F703        F  0.01409610  0.38881687  0.89521258    -0.19800
F704        F  0.01806392  0.36188912  0.82600214    -0.22500
C705        C  0.83002435  0.59803161  0.16831112    -0.05300
C706        C  0.85351457  0.62633506  0.19766387     0.00600
C707        C  0.90129666  0.62174647  0.20176200    -0.08000
C708        C  0.92432021  0.59318665  0.17217568    -0.05400
C709        C  0.90112071  0.56830609  0.13989638     0.00600
C710        C  0.85316399  0.56909246  0.13903795    -0.07900
C711        C  0.82688740  0.54178349  0.10531938     0.62500
H712        H  0.79348044  0.60110189  0.16611168     0.13200
H713        H  0.96107737  0.59187611  0.17252702     0.13200
C714        C  0.92839373  0.64740954  0.23625392     0.62700
F715        F  0.78051158  0.54794899  0.10949494    -0.22400
F716        F  0.83612726  0.49694274  0.11138292    -0.19800
F717        F  0.83942013  0.55407742  0.06274479    -0.19400
F718        F  0.90577225  0.64743101  0.27659341    -0.19500
F719        F  0.93484725  0.69088091  0.22229374    -0.19800
F720        F  0.97060942  0.62823275  0.24297268    -0.22500
C721        C  0.88454458  0.70277881  0.89962659    -0.05300
C722        C  0.89061192  0.69969645  0.85337657     0.00600
C723        C  0.92511018  0.67118067  0.83633432    -0.08000
C724        C  0.94941491  0.64419279  0.86627079    -0.05400
C725        C  0.94012789  0.64414348  0.91206007     0.00600
C726        C  0.90827910  0.67523029  0.92944945    -0.07900
C727        C  0.89698366  0.67774146  0.97871722     0.62500
H728        H  0.85896025  0.72554659  0.91218141     0.13200
H729        H  0.97465300  0.62100044  0.85380701     0.13200
C730        C  0.93492709  0.66693628  0.78688988     0.62700
F731        F  0.86297962  0.70846023  0.98751894    -0.22400
F732        F  0.93503629  0.69056122  0.00231995    -0.19800
F733        F  0.88221262  0.63657907  0.99360484    -0.19400
F734        F  0.94904840  0.70764404  0.77029102    -0.19500
F735        F  0.89641758  0.65304013  0.76460982    -0.19800
F736        F  0.96885559  0.63609501  0.77836614    -0.22500
C737        C  0.84106125  0.43362255  0.91098358    -0.05300
C738        C  0.86830128  0.41337506  0.94370523     0.00600
C739        C  0.86553344  0.36653101  0.94991108    -0.08000
C740        C  0.83800717  0.34136425  0.92094564    -0.05400
C741        C  0.81318876  0.36138548  0.88649927     0.00600
C742        C  0.81350974  0.40840786  0.88210591    -0.07900
C743        C  0.78717265  0.43154312  0.84537198     0.62500
H744        H  0.84330916  0.46943743  0.90678403     0.13200
H745        H  0.83719296  0.30533787  0.92363887     0.13200
C746        C  0.89346172  0.34277312  0.98505513     0.62700
F747        F  0.79357177  0.47732006  0.84588362    -0.22400
F748        F  0.74131489  0.42340006  0.85058429    -0.19800
F749        F  0.80116154  0.41562030  0.80439104    -0.19400
F750        F  0.88075852  0.35769652  0.02677440    -0.19500
F751        F  0.93911922  0.35115749  0.97840057    -0.19800
F752        F  0.88721808  0.29700758  0.98385105    -0.22500
C753        C  0.42052483  0.17300943  0.42578479    -0.05300
C754        C  0.44378305  0.13702794  0.40622860     0.00600
C755        C  0.44199481  0.13107176  0.35962354    -0.08000
C756        C  0.41490270  0.16024087  0.33430761    -0.05400
C757        C  0.38932417  0.19470725  0.35405756     0.00600
C758        C  0.39334423  0.20228602  0.40045191    -0.07900
C759        C  0.36705573  0.23926823  0.42356090     0.62500
H760        H  0.42227204  0.17673821  0.46156007     0.13200
H761        H  0.41166896  0.15495541  0.29882702     0.13200
C762        C  0.46620466  0.09228667  0.33718591     0.62700
F763        F  0.37438346  0.23945468  0.46900429    -0.22400
F764        F  0.32104744  0.23374874  0.41638545    -0.19800
F765        F  0.38056251  0.28020247  0.40707051    -0.19400
F766        F  0.45070104  0.05235845  0.35450707    -0.19500
F767        F  0.51241257  0.09559480  0.34431283    -0.19800
F768        F  0.45888777  0.09165286  0.29174560    -0.22500
C769        C  0.58305656  0.91684833  0.34728779    -0.05300
C770        C  0.60424082  0.94644841  0.37700341     0.00600
C771        C  0.65197801  0.95180145  0.37522749    -0.08000
C772        C  0.67726135  0.92369182  0.34689487    -0.05400
C773        C  0.65623730  0.89179333  0.31960409     0.00600
C774        C  0.60829987  0.88977390  0.31795103    -0.07900
C775        C  0.58409949  0.85759990  0.28704278     0.62500
H776        H  0.54646637  0.91381654  0.34857332     0.13200
H777        H  0.71398161  0.92497012  0.34723660     0.13200
C778        C  0.67631793  0.98522936  0.40470693     0.62700
F779        F  0.53739428  0.86042381  0.29130229    -0.22400
F780        F  0.59702852  0.81421749  0.29639496    -0.19800
F781        F  0.59516693  0.86746034  0.24347536    -0.19400
F782        F  0.66724461  0.97628703  0.44892219    -0.19500
F783        F  0.66174464  0.02792597  0.39461789    -0.19800
F784        F  0.72288983  0.98381333  0.39871268    -0.22500
C785        C  0.66513569  0.08094204  0.60289143    -0.05300
C786        C  0.63801878  0.10290825  0.57143631     0.00600
C787        C  0.64250060  0.14965231  0.56602328    -0.08000
C788        C  0.67031919  0.17338263  0.59594221    -0.05400
C789        C  0.69376866  0.15182142  0.63057518     0.00600
C790        C  0.69379791  0.10438878  0.63199986    -0.07900
C791        C  0.72293772  0.07806284  0.66436667     0.62500
H792        H  0.66216021  0.04501150  0.60590002     0.13200
H793        H  0.67166434  0.20944354  0.59409361     0.13200
C794        C  0.61613644  0.17467809  0.53061183     0.62700
F795        F  0.72772482  0.03403299  0.65101074    -0.22400
F796        F  0.70314362  0.07836379  0.70605760    -0.19800
F797        F  0.76594827  0.09636226  0.66676816    -0.19400
F798        F  0.57007522  0.16825228  0.53669671    -0.19500
F799        F  0.62863765  0.15922379  0.48901967    -0.19800
F800        F  0.62450666  0.22011387  0.53193589    -0.22500
C801        C  0.59210671  0.84434282  0.67707760    -0.05300
C802        C  0.62510139  0.81822803  0.65560634     0.00600
C803        C  0.62823850  0.81908049  0.60871468    -0.08000
C804        C  0.59970000  0.84828653  0.58497981    -0.05400
C805        C  0.56929943  0.87735276  0.60672893     0.00600
C806        C  0.56388986  0.87393680  0.65352591    -0.07900
C807        C  0.52923236  0.90159658  0.67896667     0.62500
H808        H  0.59046641  0.84328194  0.71304152     0.13200
H809        H  0.60313669  0.85070480  0.54923325     0.13200
C810        C  0.66361826  0.79155095  0.58417775     0.62700
F811        F  0.52352240  0.88615973  0.72196714    -0.22400
F812        F  0.48756697  0.89952064  0.65795654    -0.19800
F813        F  0.54334492  0.94550503  0.68140800    -0.19400
F814        F  0.65623458  0.74669760  0.59201973    -0.19500
F815        F  0.70654700  0.80288601  0.59879446    -0.19800
F816        F  0.66205629  0.79847319  0.53871701    -0.22500
C817        C  0.33778424  0.09891361  0.67393341    -0.05300
C818        C  0.36075997  0.13264041  0.69713285     0.00600
C819        C  0.40849667  0.13594314  0.69355216    -0.08000
C820        C  0.43141251  0.10685885  0.66429521    -0.05400
C821        C  0.40794405  0.07538415  0.63835146     0.00600
C822        C  0.36060003  0.06973635  0.64481499    -0.07900
C823        C  0.33404987  0.03326841  0.62129967     0.62500
H824        H  0.30123179  0.09688305  0.67733970     0.13200
H825        H  0.46765828  0.11034698  0.65947523     0.13200
C826        C  0.43464489  0.17166408  0.71847992     0.62700
F827        F  0.29135259  0.02775549  0.63977093    -0.22400
F828        F  0.35688731  0.99304001  0.62481340    -0.19800
F829        F  0.32854202  0.04390492  0.57695367    -0.19400
F830        F  0.42922709  0.16563809  0.76371407    -0.19500
F831        F  0.41865745  0.21347241  0.70688343    -0.19800
F832        F  0.48061271  0.17014900  0.70900714    -0.22500
C833        C  0.33923349  0.83865068  0.42535410    -0.05300
C834        C  0.31703946  0.85838756  0.38898055     0.00600
C835        C  0.31756802  0.90571965  0.38475527    -0.08000
C836        C  0.34523337  0.93063267  0.41358132    -0.05400
C837        C  0.37147296  0.91005903  0.44654115     0.00600
C838        C  0.36597414  0.86389531  0.45472038    -0.07900
C839        C  0.38889537  0.84082315  0.49350387     0.62500
H840        H  0.33771551  0.80277063  0.42944356     0.13200
H841        H  0.34888829  0.96623832  0.40850848     0.13200
C842        C  0.29021223  0.93036280  0.34967082     0.62700
F843        F  0.36665168  0.80170595  0.50433425    -0.22400
F844        F  0.38828898  0.86800899  0.53073314    -0.19800
F845        F  0.43328290  0.83059759  0.48253668    -0.19400
F846        F  0.24647330  0.91371420  0.34806326    -0.19500
F847        F  0.31067749  0.92574234  0.30852256    -0.19800
F848        F  0.28720149  0.97551499  0.35901050    -0.22500
C849        C  0.35385819  0.68130341  0.91487389    -0.05300
C850        C  0.32338394  0.65807133  0.88750328     0.00600
C851        C  0.32018787  0.61097318  0.89135314    -0.08000
C852        C  0.35043077  0.58864721  0.91983717    -0.05400
C853        C  0.38401966  0.61153759  0.94387482     0.00600
C854        C  0.38463470  0.65894422  0.94281116    -0.07900
C855        C  0.41808211  0.68624228  0.96990350     0.62500
H856        H  0.35572606  0.71727487  0.91188170     0.13200
H857        H  0.34985757  0.55253082  0.92120327     0.13200
C858        C  0.28596438  0.58385290  0.86499480     0.62700
F859        F  0.40615798  0.73096347  0.97108545    -0.22400
F860        F  0.46090876  0.68305526  0.95131316    -0.19800
F861        F  0.41918534  0.67093551  0.01323667    -0.19400
F862        F  0.29987525  0.58020322  0.82122945    -0.19500
F863        F  0.24375333  0.60407134  0.86674931    -0.19800
F864        F  0.28148159  0.54115866  0.88188167    -0.22500
C865        C  0.40759819  0.38518640  0.19564388    -0.05300
C866        C  0.36030463  0.38655540  0.19032480     0.00600
C867        C  0.34094572  0.41874148  0.16150262    -0.08000
C868        C  0.36978073  0.44669590  0.13694383    -0.05400
C869        C  0.41722745  0.44303138  0.13920103     0.00600
C870        C  0.43673858  0.41250885  0.17006612    -0.07900
C871        C  0.48781465  0.40672179  0.17438300     0.62500
H872        H  0.42161977  0.36052650  0.21805256     0.13200
H873        H  0.35521110  0.47027045  0.11371701     0.13200
C874        C  0.28993460  0.42278821  0.15531612     0.62700
F875        F  0.49903633  0.37324288  0.20403547    -0.22400
F876        F  0.50698996  0.44596325  0.18959936    -0.19800
F877        F  0.50646605  0.39555324  0.13361362    -0.19400
F878        F  0.26840872  0.42287323  0.19620229    -0.19500
F879        F  0.27423906  0.38739433  0.13016361    -0.19800
F880        F  0.27830954  0.46187611  0.13363172    -0.22500
C881        C  0.60915078  0.67237113  0.08307095    -0.05300
C882        C  0.57630442  0.64525383  0.10351611     0.00600
C883        C  0.56685394  0.65113624  0.14939418    -0.08000
C884        C  0.59492536  0.67945664  0.17441839    -0.05400
C885        C  0.63064397  0.70311743  0.15474299     0.00600
C886        C  0.63664425  0.70150129  0.10808638    -0.07900
C887        C  0.67362582  0.72838301  0.08538902     0.62500
H888        H  0.61517816  0.66842489  0.04776318     0.13200
H889        H  0.59047670  0.68171670  0.21011910     0.13200
C890        C  0.52763159  0.62756581  0.17215956     0.62700
F891        F  0.67422769  0.72143900  0.03989332    -0.22400
F892        F  0.71561870  0.71641735  0.10212009    -0.19800
F893        F  0.66639283  0.77338600  0.09290595    -0.19400
F894        F  0.53856487  0.58333361  0.17962935    -0.19500
F895        F  0.48919902  0.62999052  0.14589132    -0.19800
F896        F  0.51742035  0.64709009  0.21270402    -0.22500
C897        C  0.66402759  0.33512914  0.09946695    -0.05300
C898        C  0.69124453  0.35480025  0.13250243     0.00600
C899        C  0.69691174  0.40184544  0.13270484    -0.08000
C900        C  0.67155510  0.42764827  0.10263414    -0.05400
C901        C  0.64129831  0.40821012  0.07227821     0.00600
C902        C  0.63865225  0.36107748  0.06931035    -0.07900
C903        C  0.60733208  0.33832638  0.03629159     0.62500
H904        H  0.66078919  0.29913893  0.09901620     0.13200
H905        H  0.67339955  0.46373717  0.10419224     0.13200
C906        C  0.72899911  0.42518529  0.16464470     0.62700
F907        F  0.60868947  0.29230191  0.04015693    -0.22400
F908        F  0.62030701  0.34921892  0.99348550    -0.19800
F909        F  0.56304380  0.35203621  0.04335142    -0.19400
F910        F  0.77047700  0.40347563  0.16519390    -0.19500
F911        F  0.71064171  0.42547892  0.20695700    -0.19800
F912        F  0.73669483  0.46901524  0.15228796    -0.22500
C913        C  0.59271985  0.59677128  0.84657595    -0.05300
C914        C  0.61559998  0.57044365  0.87802814     0.00600
C915        C  0.66363921  0.57034003  0.87865101    -0.08000
C916        C  0.68706924  0.59915635  0.84954634    -0.05400
C917        C  0.66400290  0.62757895  0.81996446     0.00600
C918        C  0.61608315  0.62538516  0.81733936    -0.07900
C919        C  0.58956228  0.65527181  0.78597472     0.62500
H920        H  0.55596744  0.59634339  0.84667687     0.13200
H921        H  0.72372163  0.60126478  0.85106058     0.13200
C922        C  0.68982230  0.54196631  0.91162503     0.62700
F923        F  0.54318358  0.64952380  0.79044700    -0.22400
F924        F  0.60116961  0.64541029  0.74251308    -0.19800
F925        F  0.59933037  0.69957205  0.79473095    -0.19400
F926        F  0.68056173  0.49735048  0.90420614    -0.19500
F927        F  0.67726364  0.55312825  0.95455145    -0.19800
F928        F  0.73623908  0.54797151  0.90774158    -0.22500
C929        C  0.42223431  0.35377339  0.83840485    -0.05300
C930        C  0.38830597  0.32811132  0.85893504     0.00600
C931        C  0.38431973  0.32860196  0.90580940    -0.08000
C932        C  0.41324219  0.35658442  0.93048991    -0.05400
C933        C  0.44589827  0.38380942  0.90990151     0.00600
C934        C  0.45153298  0.38148122  0.86319249    -0.07900
C935        C  0.48665915  0.40977703  0.83947986     0.62500
H936        H  0.42454451  0.35301004  0.80248151     0.13200
H937        H  0.40939869  0.35877980  0.96623495     0.13200
C938        C  0.34796979  0.30162652  0.92940022     0.62700
F939        F  0.48440307  0.40459329  0.79389746    -0.22400
F940        F  0.52967190  0.39735984  0.85306793    -0.19800
F941        F  0.47971568  0.45444561  0.84908055    -0.19400
F942        F  0.35505863  0.25664343  0.92172075    -0.19500
F943        F  0.30554524  0.31356285  0.91372741    -0.19800
F944        F  0.34843308  0.30859652  0.97489171    -0.22500
C945        C  0.17039679  0.42440735  0.41900092    -0.05300
C946        C  0.13584981  0.40236923  0.44279212     0.00600
C947        C  0.13390166  0.35500436  0.44124995    -0.08000
C948        C  0.16346452  0.33213634  0.41243398    -0.05400
C949        C  0.19496904  0.35456818  0.38557228     0.00600
C950        C  0.20008433  0.40127789  0.39021970    -0.07900
C951        C  0.23503635  0.42684804  0.36341628     0.62500
H952        H  0.17240878  0.46041802  0.42114979     0.13200
H953        H  0.16058710  0.29624920  0.40890961     0.13200
C954        C  0.10054634  0.32815009  0.46893024     0.62700
F955        F  0.23261385  0.47230382  0.37140205    -0.22400
F956        F  0.22809577  0.41991363  0.31847748    -0.19800
F957        F  0.27807935  0.41241682  0.37477647    -0.19400
F958        F  0.05735989  0.33196899  0.45143827    -0.19500
F959        F  0.10071736  0.34319018  0.51243225    -0.19800
F960        F  0.11176560  0.28329403  0.46941008    -0.22500
C961        C  0.84369519  0.58761460  0.59553260    -0.05300
C962        C  0.87778364  0.60726666  0.56953734     0.00600
C963        C  0.88285751  0.65419711  0.56948828    -0.08000
C964        C  0.85485612  0.67982720  0.59761830    -0.05400
C965        C  0.82261139  0.65995222  0.62582042     0.00600
C966        C  0.81579012  0.61316358  0.62383782    -0.07900
C967        C  0.78135565  0.58990137  0.65335791     0.62500
H968        H  0.84067095  0.55158588  0.59504199     0.13200
H969        H  0.85946785  0.71564349  0.59948637     0.13200
C970        C  0.91965802  0.67673082  0.54220944     0.62700
F971        F  0.78270327  0.54399919  0.64822264    -0.22400
F972        F  0.73812051  0.60422038  0.64262396    -0.19800
F973        F  0.79009550  0.59947913  0.69751138    -0.19400
F974        F  0.91293647  0.66796515  0.49758295    -0.19500
F975        F  0.96180625  0.66075248  0.55475169    -0.19800
F976        F  0.91955683  0.72259508  0.54796820    -0.22500
C977        C  0.15172243  0.56989919  0.63221226    -0.05300
C978        C  0.10424276  0.57129967  0.63613352     0.00600
C979        C  0.08417192  0.60011433  0.66827171    -0.08000
C980        C  0.11263559  0.62755829  0.69400552    -0.05400
C981        C  0.15988541  0.62779120  0.68832583     0.00600
C982        C  0.18005867  0.59804781  0.65717965    -0.07900
C983        C  0.23086662  0.59765282  0.64798538     0.62500
H984        H  0.16651351  0.54753588  0.60785877     0.13200
H985        H  0.09802904  0.65032624  0.71809735     0.13200
C986        C  0.03305459  0.60392613  0.67424415     0.62700
F987        F  0.24208134  0.56983551  0.61284240    -0.22400
F988        F  0.25393278  0.58265081  0.68506317    -0.19800
F989        F  0.24538724  0.64019549  0.63725192    -0.19400
F990        F  0.01583588  0.56377516  0.68931971    -0.19500
F991        F  0.01278941  0.61514458  0.63434180    -0.19800
F992        F  0.02147904  0.63653125  0.70482848    -0.22500
C993        C  0.94289998  0.37674184  0.65271119    -0.05300
C994        C  0.93832317  0.37408848  0.60634295     0.00600
C995        C  0.90779935  0.34252443  0.58781127    -0.08000
C996        C  0.88209689  0.31572501  0.61680101    -0.05400
C997        C  0.88462697  0.32036408  0.66323467     0.00600
C998        C  0.91608011  0.35115834  0.68170828    -0.07900
C999        C  0.91963504  0.35951922  0.73149936     0.62500
H1000       H  0.96652945  0.40085206  0.66619490     0.13200
H1001       H  0.85808118  0.29201594  0.60327228     0.13200
C1002       C  0.89998699  0.33879399  0.53797902     0.62700
F1003       F  0.94957303  0.39368199  0.74139479    -0.22400
F1004       F  0.93504156  0.32142102  0.75255072    -0.19800
F1005       F  0.87762794  0.37146686  0.74840050    -0.19400
F1006       F  0.93934440  0.32455769  0.51723235    -0.19500
F1007       F  0.88710792  0.37980684  0.52102220    -0.19800
F1008       F  0.86607870  0.30855054  0.52783116    -0.22500
C1009       C  0.09130559  0.66399373  0.42981016    -0.05300
C1010       C  0.06777755  0.62994872  0.40763016     0.00600
C1011       C  0.06996747  0.62695521  0.36081070    -0.08000
C1012       C  0.09844188  0.65669049  0.33772887    -0.05400
C1013       C  0.12499531  0.68842373  0.36031042     0.00600
C1014       C  0.11968095  0.69379064  0.40681449    -0.07900
C1015       C  0.14359010  0.73060494  0.43231219     0.62500
H1016       H  0.08889351  0.66572735  0.46541323     0.13200
H1017       H  0.10230976  0.65351619  0.30236748     0.13200
C1018       C  0.04458064  0.59083096  0.33572392     0.62700
F1019       F  0.12566624  0.73558855  0.47458396    -0.22400
F1020       F  0.13847677  0.77081969  0.41032674    -0.19800
F1021       F  0.18923778  0.72079005  0.43638851    -0.19400
F1022       F  0.99845565  0.59573739  0.34270003    -0.19500
F1023       F  0.05817087  0.54921236  0.35052769    -0.19800
F1024       F  0.05257009  0.59289210  0.29042416    -0.22500
C1025       C  0.85493964  0.43855854  0.38975627    -0.05300
C1026       C  0.90213201  0.43789341  0.38397142     0.00600
C1027       C  0.92139254  0.41240499  0.34912724    -0.08000
C1028       C  0.89271483  0.38623943  0.32252283    -0.05400
C1029       C  0.84575376  0.38390160  0.33031161     0.00600
C1030       C  0.82613884  0.41136644  0.36389785    -0.07900
C1031       C  0.77573622  0.40999476  0.37458501     0.62500
H1032       H  0.84114352  0.45845480  0.41668427     0.13200
H1033       H  0.90722880  0.36545281  0.29663565     0.13200
C1034       C  0.97221854  0.41212552  0.34064913     0.62700
F1035       F  0.76480271  0.43686415  0.41053775    -0.22400
F1036       F  0.76293794  0.36680689  0.38486434    -0.19800
F1037       F  0.75110785  0.42489085  0.33844020    -0.19400
F1038       F  0.99435973  0.39013701  0.37468136    -0.19500
F1039       F  0.98809667  0.45546171  0.33795212    -0.19800
F1040       F  0.98288030  0.39068220  0.30129841    -0.22500
C1041       C  0.34079120  0.58981849  0.33975456    -0.05300
C1042       C  0.36120099  0.62725147  0.32030109     0.00600
C1043       C  0.40858043  0.63344981  0.32447676    -0.08000
C1044       C  0.43359250  0.60336679  0.35089656    -0.05400
C1045       C  0.41247425  0.56774224  0.37312424     0.00600
C1046       C  0.36588692  0.55915041  0.36519043    -0.07900
C1047       C  0.34112416  0.51809418  0.38187088     0.62500
H1048       H  0.30458917  0.58490203  0.33569892     0.13200
H1049       H  0.46931489  0.60926166  0.35682702     0.13200
C1050       C  0.43188282  0.67319749  0.30325033     0.62700
F1051       F  0.32124087  0.49675094  0.34608769    -0.22400
F1052       F  0.30757315  0.53089114  0.41146559    -0.19800
F1053       F  0.36928436  0.48757522  0.40249003    -0.19400
F1054       F  0.41337215  0.71239343  0.31961043    -0.19500
F1055       F  0.42594030  0.67169259  0.25769920    -0.19800
F1056       F  0.47802160  0.67360285  0.31183095    -0.22500
C1057       C  0.65293042  0.44293374  0.63480656    -0.05300
C1058       C  0.60546794  0.44062863  0.63655521     0.00600
C1059       C  0.58432821  0.41363563  0.66930707    -0.08000
C1060       C  0.61157506  0.38613509  0.69620458    -0.05400
C1061       C  0.65876290  0.38481543  0.69102369     0.00600
C1062       C  0.68018433  0.41532139  0.66167981    -0.07900
C1063       C  0.73154328  0.41867037  0.65869262     0.62500
H1064       H  0.66850247  0.46437701  0.61018782     0.13200
H1065       H  0.59597700  0.36342617  0.71965077     0.13200
C1066       C  0.53322444  0.41396916  0.67601552     0.62700
F1067       F  0.74493091  0.45551570  0.63431619    -0.22400
F1068       F  0.74925360  0.38110207  0.63831792    -0.19800
F1069       F  0.74967103  0.42266352  0.70090624    -0.19400
F1070       F  0.51165894  0.39448410  0.64019226    -0.19500
F1071       F  0.51821128  0.45749135  0.68084383    -0.19800
F1072       F  0.52080930  0.39051542  0.71363297    -0.22500
C1073       C  0.38002282  0.36127730  0.57151732    -0.05300
C1074       C  0.37508123  0.40795983  0.57196878     0.00600
C1075       C  0.34028981  0.42740789  0.59854786    -0.08000
C1076       C  0.31399949  0.39936783  0.62585025    -0.05400
C1077       C  0.32128709  0.35308833  0.62775817     0.00600
C1078       C  0.35401302  0.33333763  0.59909929    -0.07900
C1079       C  0.36368223  0.28344171  0.59930209     0.62500
H1080       H  0.40606326  0.34686158  0.55050210     0.13200
H1081       H  0.28850718  0.41367388  0.64757938     0.13200
C1082       C  0.33212793  0.47752782  0.60027494     0.62700
F1083       F  0.39910949  0.27211719  0.57115889    -0.22400
F1084       F  0.32564325  0.26041907  0.58535251    -0.19800
F1085       F  0.37537739  0.26986147  0.64168364    -0.19400
F1086       F  0.31933070  0.49268320  0.55873934    -0.19500
F1087       F  0.37121682  0.49917887  0.61371853    -0.19800
F1088       F  0.29795726  0.48882725  0.62987111    -0.22500
C1089       C  0.63104252  0.64850362  0.44451941    -0.05300
C1090       C  0.63762820  0.60229429  0.44065546     0.00600
C1091       C  0.67207264  0.58578640  0.41207580    -0.08000
C1092       C  0.69655361  0.61619677  0.38578118    -0.05400
C1093       C  0.68770707  0.66228376  0.38700393     0.00600
C1094       C  0.65514960  0.67904437  0.41780646    -0.07900
C1095       C  0.64356868  0.72843427  0.42067485     0.62500
H1096       H  0.60465215  0.66031482  0.46672142     0.13200
H1097       H  0.72187625  0.60390271  0.36265681     0.13200
C1098       C  0.68295264  0.53625878  0.40917729     0.62700
F1099       F  0.60818133  0.73662543  0.44992447    -0.22400
F1100       F  0.63069956  0.74403651  0.37930333    -0.19800
F1101       F  0.68087609  0.75206132  0.43545902    -0.19400
F1102       F  0.64823268  0.51384609  0.38792952    -0.19500
F1103       F  0.68845584  0.51901405  0.45145252    -0.19800
F1104       F  0.72260211  0.52842718  0.38564915    -0.22500
C1105       C  0.41713315  0.66279394  0.58701697    -0.05300
C1106       C  0.44639906  0.63182405  0.60715102     0.00600
C1107       C  0.45024807  0.63125927  0.65410688    -0.08000
C1108       C  0.42178472  0.65956870  0.67933077    -0.05400
C1109       C  0.39062622  0.68874989  0.65910817     0.00600
C1110       C  0.38934321  0.69162520  0.61217063    -0.07900
C1111       C  0.35706486  0.72323786  0.58868224     0.62500
H1112       H  0.41497741  0.66295081  0.55107373     0.13200
H1113       H  0.42233922  0.65793683  0.71529489     0.13200
C1114       C  0.48240671  0.59939834  0.67750611     0.62700
F1115       F  0.35932105  0.71855984  0.54296668    -0.22400
F1116       F  0.36814821  0.76681370  0.59922252    -0.19800
F1117       F  0.31288529  0.71479752  0.60172382    -0.19400
F1118       F  0.52660051  0.60874011  0.66519425    -0.19500
F1119       F  0.47220365  0.55582857  0.66605721    -0.19800
F1120       F  0.47949894  0.60315183  0.72329609    -0.22500
C1121       C  0.55976494  0.35850546  0.37110685    -0.05300
C1122       C  0.57167000  0.36496912  0.41580527     0.00600
C1123       C  0.60645553  0.33810205  0.43478471    -0.08000
C1124       C  0.63128305  0.30917780  0.40679165    -0.05400
C1125       C  0.62187863  0.30604069  0.36127052     0.00600
C1126       C  0.58386106  0.32870156  0.34362923    -0.07900
C1127       C  0.56869781  0.32089582  0.29609047     0.62500
H1128       H  0.53223308  0.37813359  0.35746292     0.13200
H1129       H  0.66023072  0.29100829  0.41960094     0.13200
C1130       C  0.61926082  0.34168197  0.48357028     0.62700
F1131       F  0.52820758  0.34250340  0.28709037    -0.22400
F1132       F  0.56227590  0.27566981  0.28925883    -0.19800
F1133       F  0.60105277  0.33630563  0.26660935    -0.19400
F1134       F  0.58291318  0.32887035  0.50969095    -0.19500
F1135       F  0.63113980  0.38515950  0.49373991    -0.19800
F1136       F  0.65565230  0.31440770  0.49414096    -0.22500
loop_ 
_geom_bond_atom_site_label_1 
_geom_bond_atom_site_label_2 
_geom_bond_distance 
_geom_bond_site_symmetry_2 
_ccdc_geom_bond_type 
O1           C17   1.274       .  A
O1           Zn7   2.011       .  S
C2           O18   1.272       .  A
C2           O15   1.277       .  A
C2         C1122   1.486       .  S
O3           C16   1.278       .  A
O3          Cd10   2.103       .  S
O4           C22   1.273       .  A
O4          Cd13   2.054       .  S
O5           C19   1.276       .  A
O5           Cd9   2.073       .  S
O6           C17   1.273       .  A
O6           Cd9   2.074       .  S
Zn7          O18   2.022       .  S
Zn7          O20   1.988       .  S
Zn7          O12   1.939       .  S
O8           C19   1.276       .  A
O8          Cd13   2.084       .  S
Cd9          O11   2.063       .  S
Cd9          O12   1.997       .  S
Cd10         O14   2.103       .  S
Cd10         O23   2.105       .  S
Cd10         O12   2.030       .  S
O11          C21   1.275       .  A
O12         Cd13   1.998       .  S
Cd13         O15   2.081       .  S
O14          C21   1.278       .  A
C16          O20   1.270       .  A
C16        C1058   1.480       .  S
C17        C1074   1.490       .  S
C19        C1045   1.481       .  S
C21        C1106   1.485       .  S
C22          O23   1.280       .  A
C22        C1090   1.482       .  S
O24          C40   1.273       .  A
O24         Zn30   2.017       .  S
C25          O41   1.273       .  A
C25          O38   1.273       .  A
C25         C994   1.485       .  S
O26          C39   1.277       .  A
O26         Cd33   2.093       .  S
O27          C45   1.272       .  A
O27         Cd36   2.049       .  S
O28          C42   1.274       .  A
O28         Cd32   2.061       .  S
O29          C40   1.275       .  A
O29         Cd32   2.074       .  S
Zn30         O41   2.026   1_455  S
Zn30         O43   1.995   1_455  S
Zn30         O35   1.934       .  S
O31          C42   1.272       .  A
O31         Cd36   2.067   1_455  S
Cd32         O34   2.049       .  S
Cd32         O35   1.993       .  S
Cd33         O37   2.091   1_655  S
Cd33         O46   2.092       .  S
Cd33         O35   2.022   1_655  S
O34          C44   1.272       .  A
O35         Cd36   1.988   1_455  S
Cd36         O38   2.052       .  S
O37          C44   1.277       .  A
C39          O43   1.271       .  A
C39        C1026   1.476       .  S
C40         C946   1.491       .  S
C42         C978   1.487       .  S
C44        C1010   1.474       .  S
C45          O46   1.277       .  A
C45         C962   1.476       .  S
O47          C63   1.273       .  A
O47         Zn53   2.016       .  S
C48          O64   1.275       .  A
C48          O61   1.273       .  A
C48         C882   1.484       .  S
O49          C62   1.279       .  A
O49         Cd56   2.110       .  S
O50          C68   1.273       .  A
O50         Cd59   2.048       .  S
O51          C65   1.275       .  A
O51         Cd55   2.069       .  S
O52          C63   1.276       .  A
O52         Cd55   2.074   1_556  S
Zn53         O64   2.035   1_556  S
Zn53         O66   2.005       .  S
Zn53         O58   1.946   1_556  S
O54          C65   1.273       .  A
O54         Cd59   2.081       .  S
Cd55         O57   2.053   1_554  S
Cd55         O58   1.994       .  S
Cd56         O60   2.107       .  S
Cd56         O69   2.104   1_556  S
Cd56         O58   2.027   1_556  S
O57          C67   1.273       .  A
O58         Cd59   1.994       .  S
Cd59         O61   2.061       .  S
O60          C67   1.279       .  A
C62          O66   1.273       .  A
C62         C914   1.484       .  S
C63         C853   1.488       .  S
C65         C869   1.493       .  S
C67         C933   1.486       .  S
C68          O69   1.279       .  A
C68         C901   1.483       .  S
O70          C86   1.275       .  A
O70         Zn76   2.030       .  S
C71          O87   1.274       .  A
C71          O84   1.275       .  A
C71         C805   1.489       .  S
O72          C85   1.278       .  A
O72         Cd79   2.096       .  S
O73          C91   1.274       .  A
O73         Cd82   2.062       .  S
O74          C88   1.275       .  A
O74         Cd78   2.075   1_565  S
O75          C86   1.273       .  A
O75         Cd78   2.065       .  S
Zn76         O87   2.027   1_545  S
Zn76         O89   2.003       .  S
Zn76         O81   1.945       .  S
O77          C88   1.273       .  A
O77         Cd82   2.061       .  S
Cd78         O80   2.065       .  S
Cd78         O81   1.998       .  S
Cd79         O83   2.100       .  S
Cd79         O92   2.093       .  S
Cd79         O81   2.023       .  S
O80          C90   1.274       .  A
O81         Cd82   1.997   1_545  S
Cd82         O84   2.074       .  S
O83          C90   1.278       .  A
C85          O89   1.274       .  A
C85         C786   1.485       .  S
C86         C821   1.484       .  S
C88         C837   1.479       .  S
C90         C754   1.481       .  S
C91          O92   1.277   1_565  A
C91         C770   1.483       .  S
O93         C109   1.271       .  A
O93         Zn99   2.008   1_455  S
C94         O110   1.273       .  A
C94         O107   1.274       .  A
C94         C725   1.486       .  S
O95         C108   1.279       .  A
O95        Cd102   2.103       .  S
O96         C114   1.273       .  A
O96        Cd105   2.053       .  S
O97         C111   1.275       .  A
O97        Cd101   2.066   1_556  S
O98         C109   1.274       .  A
O98        Cd101   2.072       .  S
Zn99        O110   2.023   1_554  S
Zn99        O112   1.997       .  S
Zn99        O104   1.937   1_655  S
O100        C111   1.272       .  A
O100       Cd105   2.070   1_455  S
Cd101       O103   2.042       .  S
Cd101       O104   1.992       .  S
Cd102       O106   2.115   1_655  S
Cd102       O115   2.110       .  S
Cd102       O104   2.027   1_655  S
O103        C113   1.270       .  A
O104       Cd105   1.992   1_454  S
Cd105       O107   2.059       .  S
O106        C113   1.281       .  A
C108        O112   1.272       .  A
C108        C709   1.478       .  S
C109        C661   1.489       .  S
C111        C690   1.487       .  S
C113        C677   1.486       .  S
C114        O115   1.280   1_556  A
C114        C738   1.490       .  S
O116        C132   1.273       .  A
O116       Zn122   2.024   1_455  S
C117        O133   1.274       .  A
C117        O130   1.272       .  A
C117        C642   1.483       .  S
O118        C131   1.280       .  A
O118       Cd125   2.108       .  S
O119        C137   1.272       .  A
O119       Cd128   2.048   1_655  S
O120        C134   1.273       .  A
O120       Cd124   2.072   1_565  S
O121        C132   1.275       .  A
O121       Cd124   2.066       .  S
Zn122       O133   2.006   1_545  S
Zn122       O135   1.992       .  S
Zn122       O127   1.936   1_655  S
O123        C134   1.274       .  A
O123       Cd128   2.066       .  S
Cd124       O126   2.050       .  S
Cd124       O127   1.991       .  S
Cd125       O129   2.109   1_655  S
Cd125       O138   2.097       .  S
Cd125       O127   2.026   1_655  S
O126        C136   1.272       .  A
O127       Cd128   1.997   1_545  S
Cd128       O130   2.070   1_455  S
O129        C136   1.280       .  A
C131        O135   1.270       .  A
C131        C613   1.489       .  S
C132        C578   1.488       .  S
C134        C626   1.477       .  S
C136        C565   1.481       .  S
C137        O138   1.278   1_565  A
C137        C594   1.472       .  S
O139        C155   1.275       .  A
O139       Zn145   2.030   1_565  S
C140        O156   1.274       .  A
C140        O153   1.274       .  A
C140        C530   1.490       .  S
O141        C154   1.278   1_554  A
O141       Cd148   2.097       .  S
O142        C160   1.273       .  A
O142       Cd151   2.050       .  S
O143        C157   1.272       .  A
O143       Cd147   2.058   1_545  S
O144        C155   1.271       .  A
O144       Cd147   2.056   1_556  S
Zn145       O156   2.029       .  S
Zn145       O158   1.997   1_545  S
Zn145       O150   1.939   1_556  S
O146        C157   1.273       .  A
O146       Cd151   2.053       .  S
Cd147       O149   2.056       .  S
Cd147       O150   1.993   1_565  S
Cd148       O152   2.104       .  S
Cd148       O161   2.106   1_565  S
Cd148       O150   2.025   1_565  S
O149        C159   1.273       .  A
O150       Cd151   1.994       .  S
Cd151       O153   2.076   1_554  S
O152        C159   1.278       .  A
C154        O158   1.274       .  A
C154        C514   1.480       .  S
C155        C546   1.482       .  S
C157        C485   1.472       .  S
C159        C498   1.484       .  S
C160        O161   1.279       .  A
C160        C469   1.480       .  S
O162        C178   1.273       .  A
O162       Zn168   2.024   1_465  S
C163        O179   1.274       .  A
C163        O176   1.272       .  A
C163        C370   1.486       .  S
O164        C177   1.280       .  A
O164       Cd171   2.112   1_554  S
O165        C183   1.272       .  A
O165       Cd174   2.050   1_655  S
O166        C180   1.273       .  A
O166       Cd170   2.076   1_546  S
O167        C178   1.275       .  A
O167       Cd170   2.059       .  S
Zn168       O179   2.009       .  S
Zn168       O181   2.001   1_545  S
Zn168       O173   1.939   1_655  S
O169        C180   1.275       .  A
O169       Cd174   2.074       .  S
Cd170       O172   2.051   1_554  S
Cd170       O173   1.991   1_565  S
Cd171       O175   2.110   1_655  S
Cd171       O184   2.091   1_565  S
Cd171       O173   2.027   1_666  S
O172        C182   1.273       .  A
O173       Cd174   1.996   1_554  S
Cd174       O176   2.071   1_456  S
O175        C182   1.280       .  A
C177        O181   1.271       .  A
C177        C453   1.486       .  S
C178        C389   1.488       .  S
C180        C402   1.486       .  S
C182        C421   1.482       .  S
C183        O184   1.278       .  A
C183        C437   1.475       .  S
O185        C201   1.276       .  A
O185       Zn191   2.037       .  S
C186        O202   1.276       .  A
C186        O199   1.274       .  A
C186       C1093   1.490       .  S
O187        C200   1.276       .  A
O187       Cd194   2.087       .  S
O188        C206   1.274       .  A
O188       Cd197   2.058       .  S
O189        C203   1.273       .  A
O189       Cd193   2.067       .  S
O190        C201   1.272       .  A
O190       Cd193   2.060       .  S
Zn191       O202   2.029       .  S
Zn191       O204   2.005       .  S
Zn191       O196   1.946       .  S
O192        C203   1.275       .  A
O192       Cd197   2.067       .  S
Cd193       O195   2.067       .  S
Cd193       O196   1.994       .  S
Cd194       O198   2.102       .  S
Cd194       O207   2.100       .  S
Cd194       O196   2.025       .  S
O195        C205   1.273       .  A
O196       Cd197   1.999       .  S
Cd197       O199   2.078       .  S
O198        C205   1.278       .  A
C200        O204   1.274       .  A
C200        C885   1.476       .  S
C201        C706   1.487       .  S
C203        C645   1.489       .  S
C205        C450   1.485       .  S
C206        O207   1.278       .  A
C206        C773   1.480       .  S
O208        C224   1.274       .  A
O208       Zn214   2.012       .  S
C209        O225   1.276       .  A
C209        O222   1.272       .  A
C209        C789   1.492       .  S
O210        C223   1.278       .  A
O210       Cd217   2.097       .  S
O211        C229   1.273       .  A
O211       Cd220   2.049       .  S
O212        C226   1.275       .  A
O212       Cd216   2.063       .  S
O213        C224   1.272       .  A
O213       Cd216   2.067       .  S
Zn214       O225   2.040       .  S
Zn214       O227   1.997       .  S
Zn214       O219   1.944       .  S
O215        C226   1.273       .  A
O215       Cd220   2.069       .  S
Cd216       O218   2.061       .  S
Cd216       O219   1.994       .  S
Cd217       O221   2.103       .  S
Cd217       O230   2.108       .  S
Cd217       O219   2.026       .  S
O218        C228   1.273       .  A
O219       Cd220   1.992       .  S
Cd220       O222   2.063       .  S
O221        C228   1.278       .  A
C223        O227   1.271       .  A
C223       C1061   1.479       .  S
C224        C997   1.487       .  S
C226        C434   1.483       .  S
C228        C741   1.483       .  S
C229        O230   1.280       .  A
C229        C533   1.480       .  S
O231        C247   1.274       .  A
O231       Zn237   2.027       .  S
C232        O248   1.277       .  A
C232        O245   1.271       .  A
C232        C850   1.485       .  S
O233        C246   1.276       .  A
O233       Cd240   2.083       .  S
O234        C252   1.272       .  A
O234       Cd243   2.060       .  S
O235        C249   1.277       .  A
O235       Cd239   2.076       .  S
O236        C247   1.276       .  A
O236       Cd239   2.087       .  S
Zn237       O248   2.035       .  S
Zn237       O250   2.005       .  S
Zn237       O242   1.941       .  S
O238        C249   1.272       .  A
O238       Cd243   2.060       .  S
Cd239       O241   2.053       .  S
Cd239       O242   2.000       .  S
Cd240       O244   2.088       .  S
Cd240       O253   2.102       .  S
Cd240       O242   2.022       .  S
O241        C251   1.273       .  A
O242       Cd243   1.992       .  S
Cd243       O245   2.050       .  S
O244        C251   1.276       .  A
C246        O250   1.273       .  A
C246        C549   1.475       .  S
C247        C418   1.492       .  S
C249        C981   1.484       .  S
C251        C629   1.470       .  S
C252        O253   1.278       .  A
C252       C1109   1.485       .  S
O254        C270   1.275       .  A
O254       Zn260   2.020       .  S
C255        O271   1.273       .  A
C255        O268   1.274       .  A
C255       C1077   1.486       .  S
O256        C269   1.277       .  A
O256       Cd263   2.095       .  S
O257        C275   1.274       .  A
O257       Cd266   2.066       .  S
O258        C272   1.276       .  A
O258       Cd262   2.069       .  S
O259        C270   1.274       .  A
O259       Cd262   2.085       .  S
Zn260       O271   2.025       .  S
Zn260       O273   1.996       .  S
Zn260       O265   1.939       .  S
O261        C272   1.274       .  A
O261       Cd266   2.072       .  S
Cd262       O264   2.052       .  S
Cd262       O265   1.998       .  S
Cd263       O267   2.098       .  S
Cd263       O276   2.100       .  S
Cd263       O265   2.025       .  S
O264        C274   1.272       .  A
O265       Cd266   1.998       .  S
Cd266       O268   2.064       .  S
O267        C274   1.278       .  A
C269        O273   1.272       .  A
C269        C818   1.477       .  S
C270        C562   1.491       .  S
C272        C693   1.490       .  S
C274        C405   1.475       .  S
C275        O276   1.278       .  A
C275        C930   1.483       .  S
O277        C293   1.271       .  A
O277       Zn283   2.013       .  S
C278        O294   1.270       .  A
C278        O291   1.276       .  A
C278        C834   1.488       .  S
O279        C292   1.278       .  A
O279       Cd286   2.102       .  S
O280        C298   1.275       .  A
O280       Cd289   2.065       .  S
O281        C295   1.274       .  A
O281       Cd285   2.069       .  S
O282        C293   1.274       .  A
O282       Cd285   2.064       .  S
Zn283       O294   1.994       .  S
Zn283       O296   1.995       .  S
Zn283       O288   1.931       .  S
O284        C295   1.274       .  A
O284       Cd289   2.072       .  S
Cd285       O287   2.040       .  S
Cd285       O288   1.994       .  S
Cd286       O290   2.100       .  S
Cd286       O299   2.103       .  S
Cd286       O288   2.024       .  S
O287        C297   1.272       .  A
O288       Cd289   1.999       .  S
Cd289       O291   2.080       .  S
O290        C297   1.278       .  A
C292        O296   1.271       .  A
C292        C501   1.483       .  S
C293        C386   1.487       .  S
C295       C1013   1.481       .  S
C297        C658   1.480       .  S
C298        O299   1.279       .  A
C298       C1042   1.479       .  S
O300        C316   1.274       .  A
O300       Zn306   2.036       .  S
C301        O317   1.274       .  A
C301        O314   1.275       .  A
C301        C898   1.488       .  S
O302        C315   1.278       .  A
O302       Cd309   2.101       .  S
O303        C321   1.274       .  A
O303       Cd312   2.058       .  S
O304        C318   1.272       .  A
O304       Cd308   2.066       .  S
O305        C316   1.273       .  A
O305       Cd308   2.057       .  S
Zn306       O317   2.022       .  S
Zn306       O319   1.998       .  S
Zn306       O311   1.941       .  S
O307        C318   1.274       .  A
O307       Cd312   2.064       .  S
Cd308       O310   2.050       .  S
Cd308       O311   1.992       .  S
Cd309       O313   2.104       .  S
Cd309       O322   2.104       .  S
Cd309       O311   2.026       .  S
O310        C320   1.271       .  A
O311       Cd312   1.999       .  S
Cd312       O314   2.077       .  S
O313        C320   1.279       .  A
C315        O319   1.272       .  A
C315       C1125   1.476       .  S
C316       C1029   1.488       .  S
C318        C373   1.484       .  S
C320        C610   1.478       .  S
C321        O322   1.279       .  A
C321        C466   1.483       .  S
O323        C339   1.271       .  A
O323       Zn329   2.013       .  S
C324        O340   1.273       .  A
C324        O337   1.271       .  A
C324        C482   1.484       .  S
O325        C338   1.278       .  A
O325       Cd332   2.109       .  S
O326        C344   1.272       .  A
O326       Cd335   2.052       .  S
O327        C341   1.275       .  A
O327       Cd331   2.092       .  S
O328        C339   1.276       .  A
O328       Cd331   2.077       .  S
Zn329       O340   1.993       .  S
Zn329       O342   1.998       .  S
Zn329       O334   1.934       .  S
O330        C341   1.275       .  A
O330       Cd335   2.067       .  S
Cd331       O333   2.048       .  S
Cd331       O334   1.998       .  S
Cd332       O336   2.104       .  S
Cd332       O345   2.114       .  S
Cd332       O334   2.030       .  S
O333        C343   1.274       .  A
O334       Cd335   1.990       .  S
Cd335       O337   2.060       .  S
O336        C343   1.280       .  A
C338        O342   1.272       .  A
C338        C757   1.490       .  S
C339        C581   1.491       .  S
C341        C674   1.502       .  S
C343        C949   1.482       .  S
C344        O345   1.280       .  A
C344        C866   1.485       .  S
O346        C362   1.275       .  A
O346       Zn352   2.007       .  S
C347        O363   1.276       .  A
C347        O360   1.271       .  A
C347        C517   1.488       .  S
O348        C361   1.279       .  A
O348       Cd355   2.105       .  S
O349        C367   1.271       .  A
O349       Cd358   2.043       .  S
O350        C364   1.274       .  A
O350       Cd354   2.072       .  S
O351        C362   1.273       .  A
O351       Cd354   2.073       .  S
Zn352       O363   2.037       .  S
Zn352       O365   2.006       .  S
Zn352       O357   1.943       .  S
O353        C364   1.273       .  A
O353       Cd358   2.071       .  S
Cd354       O356   2.058       .  S
Cd354       O357   2.000       .  S
Cd355       O359   2.093       .  S
Cd355       O368   2.105       .  S
Cd355       O357   2.024       .  S
O356        C366   1.274       .  A
O357       Cd358   1.988       .  S
Cd358       O360   2.055       .  S
O359        C366   1.278       .  A
C361        O365   1.273       .  A
C361        C917   1.486       .  S
C362        C722   1.488       .  S
C364        C597   1.478       .  S
C366        C965   1.483       .  S
C367        O368   1.279       .  A
C367        C802   1.478       .  S
C369        C370   1.404       .  A
C369        C374   1.406       .  A
C369        H376   1.083       .  S
C370        C371   1.422       .  A
C371        C372   1.407       .  A
C371        C378   1.521       .  S
C372        C373   1.404       .  A
C372        H377   1.083       .  S
C373        C374   1.421       .  A
C374        C375   1.522       .  S
C375        F379   1.384       .  S
C375        F380   1.384       .  S
C375        F381   1.383       .  S
C378        F382   1.384       .  S
C378        F383   1.383       .  S
C378        F384   1.385       .  S
C385        C386   1.404       .  A
C385        C390   1.408       .  A
C385        H392   1.083       .  S
C386        C387   1.422       .  A
C387        C388   1.406       .  A
C387        C394   1.522       .  S
C388        C389   1.405       .  A
C388        H393   1.083       .  S
C389        C390   1.421       .  A
C390        C391   1.520       .  S
C391        F395   1.383       .  S
C391        F396   1.383       .  S
C391        F397   1.383       .  S
C394        F398   1.384       .  S
C394        F399   1.383       .  S
C394        F400   1.385       .  S
C401        C402   1.405       .  A
C401        C406   1.407       .  A
C401        H408   1.083       .  S
C402        C403   1.423       .  A
C403        C404   1.409       .  A
C403        C410   1.520       .  S
C404        C405   1.400       .  A
C404        H409   1.083       .  S
C405        C406   1.414       .  A
C406        C407   1.518       .  S
C407        F411   1.384       .  S
C407        F412   1.382       .  S
C407        F413   1.384       .  S
C410        F414   1.383       .  S
C410        F415   1.383       .  S
C410        F416   1.384       .  S
C417        C418   1.409       .  A
C417        C422   1.412       .  A
C417        H424   1.083       .  S
C418        C419   1.421       .  A
C419        C420   1.407       .  A
C419        C426   1.519       .  S
C420        C421   1.402       .  A
C420        H425   1.084       .  S
C421        C422   1.415       .  A
C422        C423   1.518       .  S
C423        F427   1.384       .  S
C423        F428   1.383       .  S
C423        F429   1.383   1_455  S
C426        F430   1.382       .  S
C426        F431   1.383       .  S
C426        F432   1.385       .  S
C433        C434   1.404       .  A
C433        C438   1.404       .  A
C433        H440   1.083       .  S
C434        C435   1.422       .  A
C435        C436   1.409       .  A
C435        C442   1.521       .  S
C436        C437   1.401       .  A
C436        H441   1.083       .  S
C437        C438   1.416       .  A
C438        C439   1.520       .  S
C439        F443   1.385       .  S
C439        F444   1.383       .  S
C439        F445   1.382   1_655  S
C442        F446   1.383       .  S
C442        F447   1.384       .  S
C442        F448   1.385       .  S
C449        C450   1.402       .  A
C449        C454   1.410       .  A
C449        H456   1.083       .  S
C450        C451   1.419       .  A
C451        C452   1.410       .  A
C451        C458   1.518       .  S
C452        C453   1.402       .  A
C452        H457   1.083       .  S
C453        C454   1.421       .  A
C454        C455   1.520       .  S
C455        F459   1.384       .  S
C455        F460   1.384   1_565  S
C455        F461   1.381   1_565  S
C458        F462   1.384       .  S
C458        F463   1.382       .  S
C458        F464   1.384       .  S
C465        C466   1.407       .  A
C465        C470   1.410       .  A
C465        H472   1.083       .  S
C466        C467   1.416       .  A
C467        C468   1.408       .  A
C467        C474   1.519       .  S
C468        C469   1.405       .  A
C468        H473   1.083       .  S
C469        C470   1.414       .  A
C470        C471   1.518       .  S
C471        F475   1.383       .  S
C471        F476   1.383       .  S
C471        F477   1.383   1_545  S
C474        F478   1.384       .  S
C474        F479   1.382       .  S
C474        F480   1.385       .  S
C481        C482   1.407       .  A
C481        C486   1.402       .  A
C481        H488   1.083       .  S
C482        C483   1.423       .  A
C483        C484   1.405       .  A
C483        C490   1.522       .  S
C484        C485   1.401       .  A
C484        H489   1.083       .  S
C485        C486   1.416       .  A
C486        C487   1.522       .  S
C487        F491   1.385       .  S
C487        F492   1.384       .  S
C487        F493   1.382       .  S
C490        F494   1.384       .  S
C490        F495   1.383       .  S
C490        F496   1.385       .  S
C497        C498   1.406       .  A
C497        C502   1.409       .  A
C497        H504   1.084       .  S
C498        C499   1.417       .  A
C499        C500   1.409       .  A
C499        C506   1.519       .  S
C500        C501   1.405       .  A
C500        H505   1.084       .  S
C501        C502   1.417       .  A
C502        C503   1.519       .  S
C503        F507   1.385       .  S
C503        F508   1.384       .  S
C503        F509   1.382       .  S
C506        F510   1.383       .  S
C506        F511   1.382       .  S
C506        F512   1.385       .  S
C513        C514   1.402       .  A
C513        C518   1.405       .  A
C513        H520   1.084       .  S
C514        C515   1.416       .  A
C515        C516   1.410       .  A
C515        C522   1.519       .  S
C516        C517   1.408       .  A
C516        H521   1.083       .  S
C517        C518   1.421       .  A
C518        C519   1.521       .  S
C519        F523   1.385       .  S
C519        F524   1.383       .  S
C519        F525   1.383       .  S
C522        F526   1.384       .  S
C522        F527   1.382   1_556  S
C522        F528   1.385       .  S
C529        C530   1.408       .  A
C529        C534   1.411       .  A
C529        H536   1.083       .  S
C530        C531   1.420       .  A
C531        C532   1.407       .  A
C531        C538   1.519       .  S
C532        C533   1.403       .  A
C532        H537   1.084       .  S
C533        C534   1.415       .  A
C534        C535   1.518       .  S
C535        F539   1.384       .  S
C535        F540   1.383       .  S
C535        F541   1.383       .  S
C538        F542   1.384       .  S
C538        F543   1.382       .  S
C538        F544   1.385       .  S
C545        C546   1.406       .  A
C545        C550   1.407       .  A
C545        H552   1.083       .  S
C546        C547   1.418       .  A
C547        C548   1.406       .  A
C547        C554   1.519       .  S
C548        C549   1.402       .  A
C548        H553   1.084       .  S
C549        C550   1.414       .  A
C550        C551   1.518       .  S
C551        F555   1.384       .  S
C551        F556   1.383       .  S
C551        F557   1.384       .  S
C554        F558   1.384   1_565  S
C554        F559   1.382       .  S
C554        F560   1.384       .  S
C561        C562   1.405       .  A
C561        C566   1.407       .  A
C561        H568   1.083       .  S
C562        C563   1.424       .  A
C563        C564   1.412       .  A
C563        C570   1.520       .  S
C564        C565   1.402       .  A
C564        H569   1.083       .  S
C565        C566   1.416       .  A
C566        C567   1.519       .  S
C567        F571   1.383       .  S
C567        F572   1.383       .  S
C567        F573   1.382       .  S
C570        F574   1.382       .  S
C570        F575   1.384       .  S
C570        F576   1.385       .  S
C577        C578   1.403       .  A
C577        C582   1.407       .  A
C577        H584   1.083       .  S
C578        C579   1.421       .  A
C579        C580   1.409       .  A
C579        C586   1.521       .  S
C580        C581   1.405       .  A
C580        H585   1.083       .  S
C581        C582   1.423       .  A
C582        C583   1.522       .  S
C583        F587   1.384       .  S
C583        F588   1.383       .  S
C583        F589   1.383       .  S
C586        F590   1.383       .  S
C586        F591   1.383       .  S
C586        F592   1.384       .  S
C593        C594   1.400       .  A
C593        C598   1.407       .  A
C593        H600   1.083       .  S
C594        C595   1.414       .  A
C595        C596   1.408       .  A
C595        C602   1.517       .  S
C596        C597   1.403       .  A
C596        H601   1.083       .  S
C597        C598   1.419       .  A
C598        C599   1.520       .  S
C599        F603   1.385       .  S
C599        F604   1.382       .  S
C599        F605   1.383       .  S
C602        F606   1.383       .  S
C602        F607   1.383   1_655  S
C602        F608   1.384       .  S
C609        C610   1.399       .  A
C609        C614   1.408       .  A
C609        H616   1.083       .  S
C610        C611   1.417       .  A
C611        C612   1.409       .  A
C611        C618   1.518       .  S
C612        C613   1.404       .  A
C612        H617   1.083       .  S
C613        C614   1.425       .  A
C614        C615   1.521       .  S
C615        F619   1.385       .  S
C615        F620   1.384       .  S
C615        F621   1.383       .  S
C618        F622   1.384       .  S
C618        F623   1.382       .  S
C618        F624   1.384       .  S
C625        C626   1.403       .  A
C625        C630   1.406       .  A
C625        H632   1.083       .  S
C626        C627   1.420       .  A
C627        C628   1.408       .  A
C627        C634   1.521       .  S
C628        C629   1.400       .  A
C628        H633   1.083       .  S
C629        C630   1.412       .  A
C630        C631   1.517       .  S
C631        F635   1.383       .  S
C631        F636   1.383       .  S
C631        F637   1.383       .  S
C634        F638   1.384       .  S
C634        F639   1.382   1_565  S
C634        F640   1.385       .  S
C641        C642   1.402       .  A
C641        C646   1.405       .  A
C641        H648   1.083       .  S
C642        C643   1.420       .  A
C643        C644   1.408       .  A
C643        C650   1.521       .  S
C644        C645   1.407       .  A
C644        H649   1.083       .  S
C645        C646   1.422       .  A
C646        C647   1.520       .  S
C647        F651   1.383       .  S
C647        F652   1.384       .  S
C647        F653   1.383       .  S
C650        F654   1.384       .  S
C650        F655   1.383       .  S
C650        F656   1.385       .  S
C657        C658   1.404       .  A
C657        C662   1.405       .  A
C657        H664   1.084       .  S
C658        C659   1.414       .  A
C659        C660   1.408       .  A
C659        C666   1.518       .  S
C660        C661   1.409       .  A
C660        H665   1.083       .  S
C661        C662   1.422       .  A
C662        C663   1.522       .  S
C663        F667   1.385       .  S
C663        F668   1.383       .  S
C663        F669   1.383       .  S
C666        F670   1.384       .  S
C666        F671   1.382       .  S
C666        F672   1.384       .  S
C673        C674   1.408       .  A
C673        C678   1.404       .  A
C673        H680   1.083       .  S
C674        C675   1.427       .  A
C675        C676   1.416       .  A
C675        C682   1.517       .  S
C676        C677   1.402       .  A
C676        H681   1.083       .  S
C677        C678   1.418       .  A
C678        C679   1.522       .  S
C679        F683   1.384       .  S
C679        F684   1.382       .  S
C679        F685   1.384       .  S
C682        F686   1.383       .  S
C682        F687   1.383       .  S
C682        F688   1.383       .  S
C689        C690   1.403       .  A
C689        C694   1.407       .  A
C689        H696   1.083       .  S
C690        C691   1.421       .  A
C691        C692   1.408       .  A
C691        C698   1.522       .  S
C692        C693   1.406       .  A
C692        H697   1.083       .  S
C693        C694   1.423       .  A
C694        C695   1.521       .  S
C695        F699   1.384       .  S
C695        F700   1.383       .  S
C695        F701   1.384       .  S
C698        F702   1.383       .  S
C698        F703   1.384       .  S
C698        F704   1.385       .  S
C705        C706   1.407       .  A
C705        C710   1.409       .  A
C705        H712   1.083       .  S
C706        C707   1.420       .  A
C707        C708   1.407       .  A
C707        C714   1.519       .  S
C708        C709   1.403       .  A
C708        H713   1.084       .  S
C709        C710   1.414       .  A
C710        C711   1.517       .  S
C711        F715   1.384       .  S
C711        F716   1.383       .  S
C711        F717   1.383       .  S
C714        F718   1.384       .  S
C714        F719   1.383       .  S
C714        F720   1.385       .  S
C721        C722   1.406       .  A
C721        C726   1.406       .  A
C721        H728   1.083       .  S
C722        C723   1.421       .  A
C723        C724   1.407       .  A
C723        C730   1.520       .  S
C724        C725   1.404       .  A
C724        H729   1.083       .  S
C725        C726   1.420       .  A
C726        C727   1.521       .  S
C727        F731   1.384       .  S
C727        F732   1.383   1_556  S
C727        F733   1.384       .  S
C730        F734   1.383       .  S
C730        F735   1.383       .  S
C730        F736   1.384       .  S
C737        C738   1.409       .  A
C737        C742   1.410       .  A
C737        H744   1.083       .  S
C738        C739   1.419       .  A
C739        C740   1.410       .  A
C739        C746   1.518       .  S
C740        C741   1.404       .  A
C740        H745   1.083       .  S
C741        C742   1.415       .  A
C742        C743   1.519       .  S
C743        F747   1.385       .  S
C743        F748   1.382       .  S
C743        F749   1.383       .  S
C746        F750   1.383   1_556  S
C746        F751   1.384       .  S
C746        F752   1.384       .  S
C753        C754   1.404       .  A
C753        C758   1.412       .  A
C753        H760   1.083       .  S
C754        C755   1.414       .  A
C755        C756   1.408       .  A
C755        C762   1.519       .  S
C756        C757   1.408       .  A
C756        H761   1.083       .  S
C757        C758   1.419       .  A
C758        C759   1.518       .  S
C759        F763   1.385       .  S
C759        F764   1.383       .  S
C759        F765   1.383       .  S
C762        F766   1.384       .  S
C762        F767   1.383       .  S
C762        F768   1.385       .  S
C769        C770   1.406       .  A
C769        C774   1.409       .  A
C769        H776   1.083       .  S
C770        C771   1.417       .  A
C771        C772   1.409       .  A
C771        C778   1.519       .  S
C772        C773   1.405       .  A
C772        H777   1.083       .  S
C773        C774   1.415       .  A
C774        C775   1.518       .  S
C775        F779   1.385       .  S
C775        F780   1.383       .  S
C775        F781   1.383       .  S
C778        F782   1.383       .  S
C778        F783   1.383   1_565  S
C778        F784   1.385       .  S
C785        C786   1.404       .  A
C785        C790   1.406       .  A
C785        H792   1.084       .  S
C786        C787   1.417       .  A
C787        C788   1.411       .  A
C787        C794   1.518       .  S
C788        C789   1.408       .  A
C788        H793   1.083       .  S
C789        C790   1.422       .  A
C790        C791   1.520       .  S
C791        F795   1.385       .  S
C791        F796   1.383       .  S
C791        F797   1.384       .  S
C794        F798   1.383       .  S
C794        F799   1.383       .  S
C794        F800   1.384       .  S
C801        C802   1.403       .  A
C801        C806   1.407       .  A
C801        H808   1.084       .  S
C802        C803   1.414       .  A
C803        C804   1.409       .  A
C803        C810   1.518       .  S
C804        C805   1.408       .  A
C804        H809   1.083       .  S
C805        C806   1.421       .  A
C806        C807   1.519       .  S
C807        F811   1.385       .  S
C807        F812   1.383       .  S
C807        F813   1.382       .  S
C810        F814   1.382       .  S
C810        F815   1.383       .  S
C810        F816   1.385       .  S
C817        C818   1.403       .  A
C817        C822   1.406       .  A
C817        H824   1.084       .  S
C818        C819   1.414       .  A
C819        C820   1.409       .  A
C819        C826   1.518       .  S
C820        C821   1.407       .  A
C820        H825   1.083       .  S
C821        C822   1.419       .  A
C822        C823   1.520       .  S
C823        F827   1.385       .  S
C823        F828   1.384   1_545  S
C823        F829   1.382       .  S
C826        F830   1.382       .  S
C826        F831   1.383       .  S
C826        F832   1.385       .  S
C833        C834   1.406       .  A
C833        C838   1.406       .  A
C833        H840   1.083       .  S
C834        C835   1.424       .  A
C835        C836   1.406       .  A
C835        C842   1.521       .  S
C836        C837   1.401       .  A
C836        H841   1.083       .  S
C837        C838   1.415       .  A
C838        C839   1.516       .  S
C839        F843   1.383       .  S
C839        F844   1.384       .  S
C839        F845   1.382       .  S
C842        F846   1.384       .  S
C842        F847   1.383       .  S
C842        F848   1.384       .  S
C849        C850   1.404       .  A
C849        C854   1.407       .  A
C849        H856   1.083       .  S
C850        C851   1.419       .  A
C851        C852   1.407       .  A
C851        C858   1.520       .  S
C852        C853   1.406       .  A
C852        H857   1.083       .  S
C853        C854   1.421       .  A
C854        C855   1.519       .  S
C855        F859   1.385       .  S
C855        F860   1.383       .  S
C855        F861   1.383   1_556  S
C858        F862   1.383       .  S
C858        F863   1.384       .  S
C858        F864   1.384       .  S
C865        C866   1.404       .  A
C865        C870   1.415       .  A
C865        H872   1.083       .  S
C866        C867   1.418       .  A
C867        C868   1.404       .  A
C867        C874   1.520       .  S
C868        C869   1.404       .  A
C868        H873   1.083       .  S
C869        C870   1.425       .  A
C870        C871   1.521       .  S
C871        F875   1.384       .  S
C871        F876   1.383       .  S
C871        F877   1.384       .  S
C874        F878   1.383       .  S
C874        F879   1.383       .  S
C874        F880   1.384       .  S
C881        C882   1.406       .  A
C881        C886   1.410       .  A
C881        H888   1.083       .  S
C882        C883   1.419       .  A
C883        C884   1.405       .  A
C883        C890   1.519       .  S
C884        C885   1.401       .  A
C884        H889   1.084       .  S
C885        C886   1.415       .  A
C886        C887   1.518       .  S
C887        F891   1.384       .  S
C887        F892   1.384       .  S
C887        F893   1.383       .  S
C890        F894   1.382       .  S
C890        F895   1.384       .  S
C890        F896   1.385       .  S
C897        C898   1.408       .  A
C897        C902   1.410       .  A
C897        H904   1.083       .  S
C898        C899   1.420       .  A
C899        C900   1.406       .  A
C899        C906   1.520       .  S
C900        C901   1.404       .  A
C900        H905   1.084       .  S
C901        C902   1.417       .  A
C902        C903   1.519       .  S
C903        F907   1.385       .  S
C903        F908   1.383   1_554  S
C903        F909   1.384       .  S
C906        F910   1.384       .  S
C906        F911   1.383       .  S
C906        F912   1.384       .  S
C913        C914   1.405       .  A
C913        C918   1.409       .  A
C913        H920   1.083       .  S
C914        C915   1.416       .  A
C915        C916   1.411       .  A
C915        C922   1.518       .  S
C916        C917   1.408       .  A
C916        H921   1.083       .  S
C917        C918   1.416       .  A
C918        C919   1.518       .  S
C919        F923   1.384       .  S
C919        F924   1.383       .  S
C919        F925   1.384       .  S
C922        F926   1.383       .  S
C922        F927   1.383       .  S
C922        F928   1.385       .  S
C929        C930   1.405       .  A
C929        C934   1.412       .  A
C929        H936   1.083       .  S
C930        C931   1.415       .  A
C931        C932   1.408       .  A
C931        C938   1.519       .  S
C932        C933   1.406       .  A
C932        H937   1.083       .  S
C933        C934   1.417       .  A
C934        C935   1.517       .  S
C935        F939   1.382       .  S
C935        F940   1.383       .  S
C935        F941   1.383       .  S
C938        F942   1.383       .  S
C938        F943   1.384       .  S
C938        F944   1.384       .  S
C945        C946   1.410       .  A
C945        C950   1.410       .  A
C945        H952   1.082       .  S
C946        C947   1.421       .  A
C947        C948   1.405       .  A
C947        C954   1.520       .  S
C948        C949   1.403       .  A
C948        H953   1.084       .  S
C949        C950   1.415       .  A
C950        C951   1.517       .  S
C951        F955   1.384       .  S
C951        F956   1.383       .  S
C951        F957   1.383       .  S
C954        F958   1.383       .  S
C954        F959   1.384       .  S
C954        F960   1.384       .  S
C961        C962   1.403       .  A
C961        C966   1.408       .  A
C961        H968   1.083       .  S
C962        C963   1.414       .  A
C963        C964   1.407       .  A
C963        C970   1.519       .  S
C964        C965   1.407       .  A
C964        H969   1.083       .  S
C965        C966   1.418       .  A
C966        C967   1.519       .  S
C967        F971   1.384       .  S
C967        F972   1.383       .  S
C967        F973   1.383       .  S
C970        F974   1.383       .  S
C970        F975   1.384       .  S
C970        F976   1.385       .  S
C977        C978   1.405       .  A
C977        C982   1.406       .  A
C977        H984   1.083       .  S
C978        C979   1.423       .  A
C979        C980   1.408       .  A
C979        C986   1.521       .  S
C980        C981   1.403       .  A
C980        H985   1.083       .  S
C981        C982   1.421       .  A
C982        C983   1.522       .  S
C983        F987   1.385       .  S
C983        F988   1.383       .  S
C983        F989   1.384       .  S
C986        F990   1.383       .  S
C986        F991   1.383       .  S
C986        F992   1.383       .  S
C993        C994   1.404       .  A
C993        C998   1.406       .  A
C993       H1000   1.083       .  S
C994        C995   1.420       .  A
C995        C996   1.408       .  A
C995       C1002   1.521       .  S
C996        C997   1.406       .  A
C996       H1001   1.083       .  S
C997        C998   1.422       .  A
C998        C999   1.522       .  S
C999       F1003   1.385       .  S
C999       F1004   1.383       .  S
C999       F1005   1.384       .  S
C1002      F1006   1.383       .  S
C1002      F1007   1.384       .  S
C1002      F1008   1.384       .  S
C1009      C1010   1.403       .  A
C1009      C1014   1.406       .  A
C1009      H1016   1.075       .  S
C1010      C1011   1.413       .  A
C1011      C1012   1.408       .  A
C1011      C1018   1.518       .  S
C1012      C1013   1.407       .  A
C1012      H1017   1.074       .  S
C1013      C1014   1.417       .  A
C1014      C1015   1.518       .  S
C1015      F1019   1.384       .  S
C1015      F1020   1.384       .  S
C1015      F1021   1.382       .  S
C1018      F1022   1.383   1_455  S
C1018      F1023   1.384       .  S
C1018      F1024   1.384       .  S
C1025      C1026   1.401       .  A
C1025      C1030   1.411       .  A
C1025      H1032   1.083       .  S
C1026      C1027   1.414       .  A
C1027      C1028   1.404       .  A
C1027      C1034   1.519       .  S
C1028      C1029   1.405       .  A
C1028      H1033   1.084       .  S
C1029      C1030   1.424       .  A
C1030      C1031   1.520       .  S
C1031      F1035   1.385       .  S
C1031      F1036   1.384       .  S
C1031      F1037   1.383       .  S
C1034      F1038   1.382       .  S
C1034      F1039   1.383       .  S
C1034      F1040   1.382       .  S
C1041      C1042   1.402       .  A
C1041      C1046   1.407       .  A
C1041      H1048   1.084       .  S
C1042      C1043   1.415       .  A
C1043      C1044   1.410       .  A
C1043      C1050   1.517       .  S
C1044      C1045   1.406       .  A
C1044      H1049   1.083       .  S
C1045      C1046   1.418       .  A
C1046      C1047   1.517       .  S
C1047      F1051   1.383       .  S
C1047      F1052   1.383       .  S
C1047      F1053   1.382       .  S
C1050      F1054   1.383       .  S
C1050      F1055   1.383       .  S
C1050      F1056   1.384       .  S
C1057      C1058   1.401       .  A
C1057      C1062   1.409       .  A
C1057      H1064   1.083       .  S
C1058      C1059   1.420       .  A
C1059      C1060   1.407       .  A
C1059      C1066   1.519       .  S
C1060      C1061   1.400       .  A
C1060      H1065   1.083       .  S
C1061      C1062   1.420       .  A
C1062      C1063   1.520       .  S
C1063      F1067   1.384       .  S
C1063      F1068   1.382       .  S
C1063      F1069   1.384       .  S
C1066      F1070   1.381       .  S
C1066      F1071   1.384       .  S
C1066      F1072   1.382       .  S
C1073      C1074   1.406       .  A
C1073      C1078   1.407       .  A
C1073      H1080   1.082       .  S
C1074      C1075   1.423       .  A
C1075      C1076   1.408       .  A
C1075      C1082   1.521       .  S
C1076      C1077   1.404       .  A
C1076      H1081   1.083       .  S
C1077      C1078   1.420       .  A
C1078      C1079   1.521       .  S
C1079      F1083   1.385       .  S
C1079      F1084   1.383       .  S
C1079      F1085   1.383       .  S
C1082      F1086   1.383       .  S
C1082      F1087   1.384       .  S
C1082      F1088   1.384       .  S
C1089      C1090   1.402       .  A
C1089      C1094   1.411       .  A
C1089      H1096   1.083       .  S
C1090      C1091   1.417       .  A
C1091      C1092   1.407       .  A
C1091      C1098   1.520       .  S
C1092      C1093   1.405       .  A
C1092      H1097   1.083       .  S
C1093      C1094   1.423       .  A
C1094      C1095   1.520       .  S
C1095      F1099   1.385       .  S
C1095      F1100   1.384       .  S
C1095      F1101   1.382       .  S
C1098      F1102   1.382       .  S
C1098      F1103   1.383       .  S
C1098      F1104   1.385       .  S
C1105      C1106   1.404       .  A
C1105      C1110   1.408       .  A
C1105      H1112   1.084       .  S
C1106      C1107   1.418       .  A
C1107      C1108   1.412       .  A
C1107      C1114   1.519       .  S
C1108      C1109   1.407       .  A
C1108      H1113   1.084       .  S
C1109      C1110   1.416       .  A
C1110      C1111   1.517       .  S
C1111      F1115   1.384       .  S
C1111      F1116   1.383       .  S
C1111      F1117   1.383       .  S
C1114      F1118   1.383       .  S
C1114      F1119   1.383       .  S
C1114      F1120   1.385       .  S
C1121      C1122   1.404       .  A
C1121      C1126   1.407       .  A
C1121      H1128   1.083       .  S
C1122      C1123   1.423       .  A
C1123      C1124   1.410       .  A
C1123      C1130   1.520       .  S
C1124      C1125   1.401       .  A
C1124      H1129   1.083       .  S
C1125      C1126   1.414       .  A
C1126      C1127   1.517       .  S
C1127      F1131   1.384       .  S
C1127      F1132   1.384       .  S
C1127      F1133   1.382       .  S
C1130      F1134   1.383       .  S
C1130      F1135   1.383       .  S
C1130      F1136   1.385       .  S
