geometry optimzed in LAMMPS
_audit_creation_date              2020-11-30 
_audit_creation_method            'lammps2cif' 
_symmetry_space_group_name_H-M    'P1' 
_symmetry_Int_Tables_number       1 
_symmetry_cell_setting            triclinic 
loop_ 
_symmetry_equiv_pos_as_xyz 
  x,y,z 
_cell_length_a                    43.67503307 
_cell_length_b                    61.182701527788126 
_cell_length_c                    55.00153024749037 
_cell_angle_alpha                 90.19920870408022 
_cell_angle_beta                  110.37079976453488 
_cell_angle_gamma                 89.91719315160675 
loop_ 
_atom_site_label 
_atom_site_type_symbol 
_atom_site_fract_x 
_atom_site_fract_y 
_atom_site_fract_z 
_atom_site_charge 
C1          C  0.68382427  0.35535714  0.60337269     0.03300
C2          C  0.65046617  0.35052918  0.59336393    -0.12800
C3          C  0.63499597  0.34628374  0.56679537     0.00800
C4          C  0.65409095  0.34521505  0.55077391    -0.11300
C5          C  0.68801995  0.34887290  0.56112572     0.03300
C6          C  0.70237720  0.35482007  0.58722886    -0.10800
H7          H  0.63637761  0.35074468  0.60614891     0.08900
H8          H  0.64263831  0.34143562  0.53033662     0.06500
H9          H  0.72826861  0.35847020  0.59519189     0.06300
N10         N  0.81298637  0.46845919  0.89258707    -0.27100
N11         N  0.82723868  0.46709683  0.87499050    -0.34900
C12         C  0.83675322  0.48707918  0.87064151     0.01300
C13         C  0.82727699  0.50203070  0.88553924     0.07300
C14         C  0.81237855  0.48961448  0.89936429    -0.05800
H15         H  0.84818089  0.49060353  0.85651922     0.08000
H16         H  0.80093827  0.49557593  0.91267259     0.09200
Cu17       Cu  0.82694244  0.43978480  0.85271542     0.44200
Cu18       Cu  0.79492180  0.44132838  0.90618465     0.42000
Cu19       Cu  0.79084053  0.39255678  0.86752635     0.43900
N20         N  0.81113647  0.41400634  0.82702110    -0.34500
N21         N  0.79780495  0.39635448  0.83282463    -0.28700
C22         C  0.78499950  0.38400933  0.81148696    -0.04800
C23         C  0.79020858  0.39457341  0.79115253     0.07400
C24         C  0.80694452  0.41351226  0.80161695     0.01200
H25         H  0.77058767  0.36946724  0.81039749     0.08800
H26         H  0.81308382  0.42674236  0.79115945     0.07900
N27         N  0.78212247  0.39278925  0.90181918    -0.35900
N28         N  0.78376743  0.41028415  0.91638778    -0.28100
C29         C  0.77855685  0.40408033  0.93811514    -0.03300
C30         C  0.77329086  0.38167198  0.93687627     0.05300
C31         C  0.77547301  0.37516941  0.91351479     0.03400
H32         H  0.77927745  0.41494024  0.95385651     0.08500
H33         H  0.77305733  0.35875668  0.90577430     0.07300
C34         C  0.74453606  0.81412556  0.56551406     0.03300
C35         C  0.71101759  0.81872626  0.55601171    -0.12800
C36         C  0.69350567  0.81872634  0.52920402     0.00800
C37         C  0.71076603  0.81629489  0.51203888    -0.11300
C38         C  0.74481091  0.81388091  0.52142522     0.03300
C39         C  0.76150119  0.81217196  0.54820967    -0.10800
H40         H  0.69822320  0.82082137  0.56956689     0.08900
H41         H  0.69774036  0.81615860  0.49129487     0.06500
H42         H  0.78753447  0.80895798  0.55554243     0.06300
N43         N  0.84535062  0.69987279  0.86278640    -0.27100
N44         N  0.84225699  0.69403868  0.83883520    -0.34900
C45         C  0.84224482  0.67205919  0.83736801     0.01300
C46         C  0.84546361  0.66374716  0.86149480     0.07300
C47         C  0.84733516  0.68179038  0.87711220    -0.05800
H48         H  0.83955042  0.66281570  0.81995104     0.08000
H49         H  0.84970493  0.68177910  0.89735115     0.09200
Cu50       Cu  0.83743272  0.71607881  0.80890027     0.44200
Cu51       Cu  0.84725666  0.73201318  0.87565076     0.42000
Cu52       Cu  0.85444299  0.77190117  0.83107124     0.43900
N53         N  0.83357779  0.74250818  0.78420173    -0.34500
N54         N  0.84043057  0.76276479  0.79281078    -0.28700
C55         C  0.83484565  0.77638368  0.77267180    -0.04800
C56         C  0.82399026  0.76416727  0.75024072     0.07400
C57         C  0.82334541  0.74273316  0.75808439     0.01200
H58         H  0.83777840  0.79391811  0.77424691     0.08800
H59         H  0.81563682  0.72849399  0.74577548     0.07900
N60         N  0.85978589  0.77936684  0.86872750    -0.35900
N61         N  0.85492176  0.76501019  0.88485518    -0.28100
C62         C  0.85786421  0.77523510  0.90723468    -0.03300
C63         C  0.86553623  0.79701233  0.90517509     0.05300
C64         C  0.86664678  0.79894889  0.88045729     0.03400
H65         H  0.85496937  0.76735323  0.92387537     0.08500
H66         H  0.87214579  0.81346754  0.87159444     0.07300
C67         C  0.90767039  0.80856807  0.37752282     0.03300
C68         C  0.88338292  0.80678634  0.38864987    -0.12800
C69         C  0.89184310  0.80505125  0.41566945     0.00800
C70         C  0.92514191  0.80379462  0.43119364    -0.11300
C71         C  0.94959128  0.80369064  0.41998250     0.03300
C72         C  0.94061804  0.80621946  0.39305988    -0.10800
H73         H  0.85795293  0.80801813  0.37635419     0.08900
H74         H  0.93212900  0.80297283  0.45209961     0.06500
H75         H  0.95930289  0.80722998  0.38431020     0.06300
N76         N  0.86332481  0.97120745  0.12552806    -0.27100
N77         N  0.86286887  0.96855626  0.14925265    -0.34900
C78         C  0.85328252  0.98734173  0.15719091     0.01300
C79         C  0.84752432  0.00256428  0.13755956     0.07300
C80         C  0.85423946  0.99179108  0.11782197    -0.05800
H81         H  0.84993025  0.98957699  0.17563140     0.08000
H82         H  0.85187931  0.99827968  0.09897155     0.09200
Cu83       Cu  0.87336847  0.93923490  0.16927279     0.44200
Cu84       Cu  0.87317425  0.94624451  0.10369380     0.42000
Cu85       Cu  0.88602454  0.89259605  0.13389186     0.43900
N86         N  0.88200120  0.90798955  0.18466005    -0.34500
N87         N  0.88658614  0.89079963  0.17169189    -0.28700
C88         C  0.88998421  0.87286475  0.18652696    -0.04800
C89         C  0.88737853  0.87917364  0.20987784     0.07400
C90         C  0.88231479  0.90149035  0.20807295     0.01200
H91         H  0.89321643  0.85644534  0.18051818     0.08800
H92         H  0.87832961  0.91211905  0.22244915     0.07900
N93         N  0.88329714  0.89834675  0.09604796    -0.35900
N94         N  0.87887101  0.91783131  0.08501204    -0.28100
C95         C  0.87707809  0.91563264  0.06017850    -0.03300
C96         C  0.88053784  0.89371597  0.05546954     0.05300
C97         C  0.88444090  0.88324607  0.07858415     0.03400
H98         H  0.87271009  0.92887774  0.04643706     0.08500
H99         H  0.88723906  0.86590857  0.08227031     0.07300
C100        C  0.83757285  0.31072496  0.41344912     0.03300
C101        C  0.87035920  0.30583477  0.42758074    -0.12800
C102        C  0.88323460  0.30953757  0.45443991     0.00800
C103        C  0.86277499  0.31772181  0.46709693    -0.11300
C104        C  0.82962560  0.32152192  0.45344464     0.03300
C105        C  0.81721317  0.31846445  0.42646574    -0.10800
H106        H  0.88581779  0.29920467  0.41762854     0.08900
H107        H  0.87244242  0.32042137  0.48787636     0.06500
H108        H  0.79162844  0.32161296  0.41572260     0.06300
N109        N  0.75827325  0.19297687  0.12664683    -0.27100
N110        N  0.77046926  0.19211978  0.15223590    -0.34900
C111        C  0.78077091  0.17160946  0.15945654     0.01300
C112        C  0.77465037  0.15898022  0.13730102     0.07300
C113        C  0.76028255  0.17307182  0.11687507    -0.05800
H114        H  0.79234074  0.16635934  0.17931491     0.08000
H115        H  0.75244143  0.16924295  0.09639859     0.09200
Cu116      Cu  0.77266741  0.21921314  0.17572257     0.44200
Cu117      Cu  0.74194472  0.22159851  0.10636159     0.42000
Cu118      Cu  0.73477404  0.26935102  0.14332080     0.43900
N119        N  0.76999310  0.24809867  0.19493517    -0.34500
N120        N  0.75531909  0.26610766  0.18330373    -0.28700
C121        C  0.75748304  0.28150622  0.20139440    -0.04800
C122        C  0.77441332  0.27272814  0.22548307     0.07400
C123        C  0.78194243  0.25157668  0.22069169     0.01200
H124        H  0.74753367  0.29781588  0.19732685     0.08800
H125        H  0.79472997  0.23949895  0.23491798     0.07900
N126        N  0.72797066  0.26994943  0.10407622    -0.35900
N127        N  0.73227266  0.25272943  0.09104418    -0.28100
C128        C  0.73385240  0.25935638  0.06824160    -0.03300
C129        C  0.73023172  0.28182531  0.06672740     0.05300
C130        C  0.72602161  0.28793505  0.08964171     0.03400
H131        H  0.73987108  0.24880836  0.05471894     0.08500
H132        H  0.72461345  0.30441256  0.09632044     0.07300
C133        C  0.39980555  0.79227217  0.41381359     0.03300
C134        C  0.43309022  0.79806874  0.42348014    -0.12800
C135        C  0.44953739  0.80085073  0.45027529     0.00800
C136        C  0.43231590  0.79840379  0.46742887    -0.11300
C137        C  0.39848870  0.79441850  0.45802148     0.03300
C138        C  0.38273311  0.79117866  0.43123374    -0.10800
H139        H  0.44643546  0.79989290  0.41028511     0.08900
H140        H  0.44527362  0.79992463  0.48810688     0.06500
H141        H  0.35688420  0.78750717  0.42386817     0.06300
N142        N  0.21777641  0.64967409  0.13516682    -0.27100
N143        N  0.21870363  0.65044893  0.15943580    -0.34900
C144        C  0.21248732  0.63034746  0.16648312     0.01300
C145        C  0.20739867  0.61636281  0.14559664     0.07300
C146        C  0.21070867  0.62921477  0.12606778    -0.05800
H147        H  0.21448192  0.62583896  0.18595908     0.08000
H148        H  0.21118534  0.62363566  0.10750179     0.09200
Cu149      Cu  0.23527942  0.67755501  0.18325006     0.44200
Cu150      Cu  0.23442874  0.67440408  0.11753311     0.42000
Cu151      Cu  0.28735366  0.71314569  0.16162588     0.43900
N152        N  0.26178126  0.70353516  0.20489041    -0.34500
N153        N  0.28279838  0.71513882  0.19786876    -0.28700
C154        C  0.29846530  0.72904480  0.21711608    -0.04800
C155        C  0.28633595  0.72651500  0.23711360     0.07400
C156        C  0.26290101  0.71023152  0.22851531     0.01200
H157        H  0.31748725  0.74016470  0.21659202     0.08800
H158        H  0.24794619  0.70353163  0.23872696     0.07900
N159        N  0.28030479  0.71198473  0.12234479    -0.35900
N160        N  0.26019512  0.69807481  0.10606865    -0.28100
C161        C  0.25918593  0.70234798  0.08183911    -0.03300
C162        C  0.27958494  0.71984931  0.08294314     0.05300
C163        C  0.29258748  0.72558189  0.10889107     0.03400
H164        H  0.24402254  0.69378685  0.06465570     0.08500
H165        H  0.30886565  0.73904130  0.11721975     0.07300
C166        C  0.34224054  0.32461695  0.44506177     0.03300
C167        C  0.37620492  0.32568520  0.45765625    -0.12800
C168        C  0.38980448  0.32758104  0.48483328     0.00800
C169        C  0.36881559  0.32732030  0.49931191    -0.11300
C170        C  0.33493525  0.32476660  0.48695074     0.03300
C171        C  0.32177167  0.32370776  0.45979927    -0.10800
H172        H  0.39197171  0.32583595  0.44618560     0.08900
H173        H  0.37882117  0.32888598  0.52023508     0.06500
H174        H  0.29557775  0.32231270  0.45011756     0.06300
N175        N  0.22504641  0.41693614  0.14628677    -0.27100
N176        N  0.21928525  0.41809378  0.16830689    -0.34900
C177        C  0.21450394  0.43908305  0.17329117     0.01300
C178        C  0.21777168  0.45185114  0.15362947     0.07300
C179        C  0.22451587  0.43724793  0.13684559    -0.05800
H180        H  0.20968265  0.44468671  0.19030026     0.08000
H181        H  0.22912151  0.44111111  0.11925371     0.09200
Cu182      Cu  0.22218302  0.39159735  0.19224766     0.44200
Cu183      Cu  0.23333808  0.38770927  0.13029282     0.42000
Cu184      Cu  0.25109891  0.34114630  0.17352910     0.43900
N185        N  0.23715605  0.36491861  0.21651289    -0.34500
N186        N  0.24871437  0.34667606  0.21004038    -0.28700
C187        C  0.25986370  0.33371574  0.23102919    -0.04800
C188        C  0.25502575  0.34440217  0.25160661     0.07400
C189        C  0.24060265  0.36408784  0.24173231     0.01200
H190        H  0.27180944  0.31817060  0.23153743     0.08800
H191        H  0.23477453  0.37733678  0.25244398     0.07900
N192        N  0.24752545  0.33936543  0.13498593    -0.35900
N193        N  0.23996568  0.35616591  0.11894067    -0.28100
C194        C  0.23655088  0.34911776  0.09492702    -0.03300
C195        C  0.24253443  0.32682663  0.09595353     0.05300
C196        C  0.24963144  0.32126496  0.12172204     0.03400
H197        H  0.22946457  0.35935949  0.07789603     0.08500
H198        H  0.25508945  0.30516730  0.13009651     0.07300
C199        C  0.22066942  0.80212882  0.59084195     0.03300
C200        C  0.24612296  0.80361948  0.58091593    -0.12800
C201        C  0.23966538  0.80134218  0.55419577     0.00800
C202        C  0.20721842  0.79907414  0.53740266    -0.11300
C203        C  0.18140120  0.79757503  0.54698830     0.03300
C204        C  0.18866710  0.79816485  0.57398788    -0.10800
H205        H  0.27084155  0.80664836  0.59394071     0.08900
H206        H  0.20208404  0.79862151  0.51666937     0.06500
H207        H  0.16923068  0.79666539  0.58186756     0.06300
N208        N  0.29056543  0.90462453  0.89214414    -0.27100
N209        N  0.28431740  0.90844277  0.86725094    -0.34900
C210        C  0.28025717  0.92998021  0.86283395     0.01300
C211        C  0.28431111  0.94039592  0.88605447     0.07300
C212        C  0.29082450  0.92382932  0.90432891    -0.05800
H213        H  0.27440364  0.93750230  0.84399991     0.08000
H214        H  0.29514367  0.92557934  0.92483225     0.09200
Cu215      Cu  0.28058265  0.88452400  0.83987424     0.44200
Cu216      Cu  0.29669661  0.87309659  0.90717503     0.42000
Cu217      Cu  0.28561034  0.82856552  0.85919316     0.43900
N218        N  0.27525193  0.85893048  0.81424740    -0.34500
N219        N  0.27662176  0.83816526  0.82107181    -0.28700
C220        C  0.27118363  0.82561740  0.79980149    -0.04800
C221        C  0.26634004  0.83927404  0.77875699     0.07400
C222        C  0.26909186  0.86024464  0.78859968     0.01200
H223        H  0.27074195  0.80795948  0.79964116     0.08800
H224        H  0.26647121  0.87533213  0.77788974     0.07900
N225        N  0.29420662  0.82392842  0.89849408    -0.35900
N226        N  0.29840353  0.83988801  0.91568841    -0.28100
C227        C  0.30180811  0.83112934  0.93888552    -0.03300
C228        C  0.29961177  0.80866143  0.93618507     0.05300
C229        C  0.29479779  0.80464046  0.91035948     0.03400
H230        H  0.30441523  0.84046987  0.95622915     0.08500
H231        H  0.29098521  0.78892358  0.90073838     0.07300
C232        C  0.15847021  0.27472229  0.60926123     0.03300
C233        C  0.12534441  0.27764243  0.59455598    -0.12800
C234        C  0.11626942  0.28724499  0.57000264     0.00800
C235        C  0.14022397  0.29434776  0.56037735    -0.11300
C236        C  0.17337640  0.29083221  0.57444136     0.03300
C237        C  0.18243022  0.28084886  0.59893413    -0.10800
H238        H  0.10674688  0.27257203  0.60223488     0.08900
H239        H  0.13296085  0.30213445  0.54152722     0.06500
H240        H  0.20800279  0.27815586  0.61008778     0.06300
N241        N  0.24219041  0.13801840  0.89012625    -0.27100
N242        N  0.24452962  0.13712665  0.86682527    -0.34900
C243        C  0.24817980  0.11616332  0.86089938     0.01300
C244        C  0.24784497  0.10314872  0.88136067     0.07300
C245        C  0.24385858  0.11759810  0.89949894    -0.05800
H246        H  0.25124646  0.11081924  0.84311449     0.08000
H247        H  0.24268444  0.11359076  0.91829578     0.09200
Cu248      Cu  0.24197646  0.16443204  0.84398897     0.44200
Cu249      Cu  0.23863859  0.16712500  0.90856176     0.42000
Cu250      Cu  0.23542567  0.21708997  0.87170375     0.43900
N251        N  0.23516981  0.19349644  0.82352221    -0.34500
N252        N  0.23281333  0.21284464  0.83352478    -0.28700
C253        C  0.22629247  0.22802879  0.81470360    -0.04800
C254        C  0.22448546  0.21762552  0.79186976     0.07400
C255        C  0.23014041  0.19579581  0.79812693     0.01200
H256        H  0.22187515  0.24511762  0.81720166     0.08800
H257        H  0.22940781  0.18246658  0.78499047     0.07900
N258        N  0.23585797  0.21646720  0.90960463    -0.35900
N259        N  0.23684617  0.19837432  0.92296576    -0.28100
C260        C  0.23651440  0.20375982  0.94663303    -0.03300
C261        C  0.23520624  0.22630096  0.94818842     0.05300
C262        C  0.23484159  0.23381630  0.92439828     0.03400
H263        H  0.23710072  0.19214331  0.96155478     0.08500
H264        H  0.23396118  0.25063830  0.91832181     0.07300
C265        C  0.21434629  0.22705421  0.76559384     0.01500
C266        C  0.18218892  0.22387586  0.74826633     0.04400
C267        C  0.17294781  0.23164308  0.72266677    -0.11700
C268        C  0.19598996  0.24231962  0.71419341     0.23700
C269        C  0.22809797  0.24564247  0.73160273    -0.12300
C270        C  0.23711490  0.23829845  0.75738031     0.05100
C271        C  0.18626133  0.25049912  0.68716153     0.27500
C272        C  0.18465221  0.23607848  0.66667442    -0.13000
C273        C  0.17511028  0.24390743  0.64105740     0.05600
C274        C  0.16802127  0.26624852  0.63598958    -0.08900
C275        C  0.16966941  0.28065087  0.65644588     0.06400
C276        C  0.17847455  0.27276185  0.68194673    -0.13300
Br277      Br  0.25980193  0.25990787  0.71988478    -0.05400
Br278      Br  0.15062777  0.20922914  0.75981810     0.00300
Br279      Br  0.17095909  0.22406372  0.61276465     0.00700
Br280      Br  0.17965498  0.29238744  0.70979850    -0.03700
Br281      Br  0.28072359  0.24340417  0.78141247     0.00800
Br282      Br  0.12868802  0.22777568  0.69916113    -0.03000
Br283      Br  0.19579474  0.20567493  0.67382743    -0.03800
Br284      Br  0.15991610  0.31125486  0.64942608     0.00100
C285        C  0.28111510  0.96420074  0.88951901     0.01500
C286        C  0.25696081  0.97242618  0.89877859     0.04400
C287        C  0.25116000  0.99509956  0.89856355    -0.11700
C288        C  0.26944806  0.00959122  0.88916685     0.23700
C289        C  0.29445651  0.00148759  0.88096187    -0.12300
C290        C  0.30037464  0.97888150  0.88122178     0.05100
C291        C  0.26252288  0.03340619  0.88781928     0.27500
C292        C  0.23826466  0.04227220  0.86590509    -0.13000
C293        C  0.23284992  0.06500792  0.86403746     0.05600
C294        C  0.25243005  0.07908595  0.88379119    -0.08900
C295        C  0.27679310  0.07005231  0.90572477     0.06400
C296        C  0.28123819  0.04726488  0.90794318    -0.13300
Br297      Br  0.32030907  0.02147446  0.86901564    -0.05400
Br298      Br  0.23045123  0.95277185  0.91042231     0.00300
Br299      Br  0.19764410  0.07652029  0.83480460     0.00700
Br300      Br  0.31325869  0.03481620  0.93847422    -0.03700
Br301      Br  0.33564109  0.96815937  0.87087612     0.00800
Br302      Br  0.21773469  0.00645567  0.91062508    -0.03000
Br303      Br  0.21268799  0.02311774  0.83837153    -0.03800
Br304      Br  0.30614405  0.08867205  0.93195065     0.00100
C305        C  0.22692749  0.80685417  0.61853168     0.01500
C306        C  0.22483629  0.82856947  0.62644259     0.04400
C307        C  0.22957923  0.83325092  0.65253765    -0.11700
C308        C  0.23809750  0.81639505  0.67109525     0.23700
C309        C  0.24084184  0.79471388  0.66328755    -0.12300
C310        C  0.23475336  0.78990272  0.63694656     0.05100
C311        C  0.24546714  0.82172192  0.69891940     0.27500
C312        C  0.27625645  0.83038600  0.71368315    -0.13000
C313        C  0.28308825  0.83610853  0.73983698     0.05600
C314        C  0.25926009  0.83300052  0.75140431    -0.08900
C315        C  0.22838594  0.82448611  0.73661266     0.06400
C316        C  0.22152654  0.81878812  0.71042014    -0.13300
Br317      Br  0.25350835  0.77176889  0.68881838    -0.05400
Br318      Br  0.21654068  0.85202718  0.60161618     0.00300
Br319      Br  0.32524380  0.84803962  0.75989329     0.00700
Br320      Br  0.17918033  0.80734038  0.69007677    -0.03700
Br321      Br  0.23753373  0.76022326  0.62602843     0.00800
Br322      Br  0.22433402  0.86276673  0.66295269    -0.03000
Br323      Br  0.30902995  0.83442161  0.69793160    -0.03800
Br324      Br  0.19492432  0.82177392  0.75186725     0.00100
C325        C  0.24010445  0.31188129  0.07402950     0.01500
C326        C  0.22058896  0.29283014  0.06990587     0.04400
C327        C  0.21953551  0.27814779  0.04986576    -0.11700
C328        C  0.23656193  0.28291084  0.03299763     0.23700
C329        C  0.25506538  0.30225371  0.03643869    -0.12300
C330        C  0.25745614  0.31646193  0.05721052     0.05100
C331        C  0.23533693  0.26751081  0.01173665     0.27500
C332        C  0.26148288  0.25299939  0.01475052    -0.13000
C333        C  0.26123856  0.23920800  0.99414074     0.05600
C334        C  0.23463643  0.23972961  0.97047088    -0.08900
C335        C  0.20796801  0.25374853  0.96780717     0.06400
C336        C  0.20844366  0.26772141  0.98832210    -0.13300
Br337      Br  0.27722424  0.30916239  0.01256601    -0.05400
Br338      Br  0.19348425  0.28725953  0.09045731     0.00300
Br339      Br  0.29826390  0.22051537  0.99802781     0.00700
Br340      Br  0.17252851  0.28748251  0.98428500    -0.03700
Br341      Br  0.28619689  0.34141392  0.06328367     0.00800
Br342      Br  0.19500859  0.25130034  0.04555178    -0.03000
Br343      Br  0.29790015  0.25237371  0.04709877    -0.03800
Br344      Br  0.17017971  0.25332111  0.93638205     0.00100
C345        C  0.31326514  0.32232220  0.50240252     0.01500
C346        C  0.29005602  0.33858531  0.50187051     0.04400
C347        C  0.26746791  0.33504535  0.51454338    -0.11700
C348        C  0.26942374  0.31589516  0.52916704     0.23700
C349        C  0.29394193  0.30037016  0.53110606    -0.12300
C350        C  0.31471336  0.30305930  0.51678611     0.05100
C351        C  0.24391753  0.31069963  0.54033745     0.27500
C352        C  0.24557199  0.31932909  0.56452939    -0.13000
C353        C  0.22223188  0.31315644  0.57557375     0.05600
C354        C  0.19817647  0.29742775  0.56305649    -0.08900
C355        C  0.19698566  0.28857637  0.53896039     0.06400
C356        C  0.21915400  0.29570823  0.52732821    -0.13300
Br357      Br  0.29821251  0.27497948  0.55282319    -0.05400
Br358      Br  0.28911257  0.36565648  0.48382443     0.00300
Br359      Br  0.22252858  0.32702725  0.60723487     0.00700
Br360      Br  0.21593001  0.28478427  0.49350876    -0.03700
Br361      Br  0.34231312  0.27912758  0.51464393     0.00800
Br362      Br  0.23296796  0.35584981  0.51100167    -0.03000
Br363      Br  0.28025772  0.33924461  0.58266236    -0.03800
Br364      Br  0.16627905  0.26572970  0.52229652     0.00100
C365        C  0.32797790  0.32596518  0.41641539     0.01500
C366        C  0.32872040  0.30775443  0.40085809     0.04400
C367        C  0.31523582  0.30929997  0.37363649    -0.11700
C368        C  0.30178328  0.32922501  0.36189586     0.23700
C369        C  0.30121978  0.34746499  0.37743467    -0.12300
C370        C  0.31406073  0.34579542  0.40461497     0.05100
C371        C  0.28976933  0.33141342  0.33323725     0.27500
C372        C  0.31219871  0.33510130  0.32044762    -0.13000
C373        C  0.30093881  0.33822820  0.29344114     0.05600
C374        C  0.26712234  0.33813965  0.27921030    -0.08900
C375        C  0.24473081  0.33400787  0.29190871     0.06400
C376        C  0.25602571  0.33063070  0.31888788    -0.13300
Br377      Br  0.28367999  0.37494249  0.36136457    -0.05400
Br378      Br  0.34840213  0.28078095  0.41686597     0.00300
Br379      Br  0.33189739  0.34377011  0.27627829     0.00700
Br380      Br  0.22531817  0.32558060  0.33637709    -0.03700
Br381      Br  0.31388502  0.37104823  0.42565451     0.00800
Br382      Br  0.31523419  0.28422895  0.35226767    -0.03000
Br383      Br  0.35830813  0.33699932  0.34024187    -0.03800
Br384      Br  0.19857751  0.33269109  0.27218435     0.00100
C385        C  0.29862395  0.79278250  0.95609148     0.01500
C386        C  0.32622892  0.78992976  0.97872457     0.04400
C387        C  0.32426781  0.77654277  0.99888590    -0.11700
C388        C  0.29498707  0.76549726  0.99617570     0.23700
C389        C  0.26789038  0.76748978  0.97307141    -0.12300
C390        C  0.26947895  0.78140709  0.95324161     0.05100
C391        C  0.29152637  0.75361026  0.01851993     0.27500
C392        C  0.30176462  0.73171299  0.02343705    -0.13000
C393        C  0.29807535  0.72064822  0.04466047     0.05600
C394        C  0.28377401  0.73140925  0.06079301    -0.08900
C395        C  0.27312672  0.75323027  0.05558287     0.06400
C396        C  0.27743519  0.76438118  0.03472469    -0.13300
Br397      Br  0.22815274  0.75179185  0.96921048    -0.05400
Br398      Br  0.36679245  0.80430031  0.98208703     0.00300
Br399      Br  0.31351700  0.69099068  0.05207448     0.00700
Br400      Br  0.26406440  0.79454126  0.02823637    -0.03700
Br401      Br  0.23076804  0.78628503  0.92328293     0.00800
Br402      Br  0.36110885  0.77406385  0.03076337    -0.03000
Br403      Br  0.32078556  0.71700600  0.00104391    -0.03800
Br404      Br  0.25086332  0.76756691  0.07600574     0.00100
C405        C  0.20760721  0.59223265  0.14622822     0.01500
C406        C  0.23454489  0.58065992  0.14408437     0.04400
C407        C  0.23437886  0.55770806  0.14370403    -0.11700
C408        C  0.20811070  0.54616476  0.14682540     0.23700
C409        C  0.18143747  0.55768926  0.14946631    -0.12300
C410        C  0.18102814  0.58070732  0.14886392     0.05100
C411        C  0.20962360  0.52196234  0.14862961     0.27500
C412        C  0.19184721  0.50894667  0.12719885    -0.13000
C413        C  0.19416533  0.48600269  0.12885790     0.05600
C414        C  0.21546797  0.47599599  0.15160438    -0.08900
C415        C  0.23414027  0.48917665  0.17269780     0.06400
C416        C  0.23037514  0.51201251  0.17149957    -0.13300
Br417      Br  0.14576072  0.54191138  0.15426641    -0.05400
Br418      Br  0.27285280  0.59607063  0.14349327     0.00300
Br419      Br  0.16696602  0.46849874  0.10022575     0.00700
Br420      Br  0.25382366  0.52983454  0.20121477    -0.03700
Br421      Br  0.14389562  0.59647128  0.15125166     0.00800
Br422      Br  0.27030627  0.54195764  0.13901640    -0.03000
Br423      Br  0.16469750  0.52265305  0.09543817    -0.03800
Br424      Br  0.26698539  0.47636261  0.20252701     0.00100
C425        C  0.26650150  0.80119021  0.54341758     0.01500
C426        C  0.29098013  0.78488035  0.55099427     0.04400
C427        C  0.31479483  0.78372527  0.53916032    -0.11700
C428        C  0.31299499  0.79780562  0.51850779     0.23700
C429        C  0.28868239  0.81411746  0.51095660    -0.12300
C430        C  0.26630716  0.81633027  0.52401919     0.05100
C431        C  0.33682187  0.79570243  0.50484385     0.27500
C432        C  0.36157828  0.81139668  0.50897560    -0.13000
C433        C  0.38122435  0.81138257  0.49343469     0.05600
C434        C  0.37908135  0.79398729  0.47575576    -0.08900
C435        C  0.35644527  0.77688486  0.47389372     0.06400
C436        C  0.33414057  0.77849686  0.48714965    -0.13300
Br437      Br  0.28553283  0.83313904  0.48222356    -0.05400
Br438      Br  0.29099881  0.76308601  0.57631250     0.00300
Br439      Br  0.40803886  0.83669211  0.49510414     0.00700
Br440      Br  0.29902816  0.75759479  0.48033689    -0.03700
Br441      Br  0.23623414  0.84068084  0.51590183     0.00800
Br442      Br  0.35007068  0.76288540  0.55120642    -0.03000
Br443      Br  0.36806966  0.83318011  0.53585920    -0.03800
Br444      Br  0.35660149  0.75055537  0.45438487     0.00100
C445        C  0.29753292  0.73816569  0.26252458     0.01500
C446        C  0.30422094  0.72655765  0.28605754     0.04400
C447        C  0.31668345  0.73765880  0.30995413    -0.11700
C448        C  0.32611302  0.75975618  0.31073550     0.23700
C449        C  0.31952751  0.77136995  0.28741672    -0.12300
C450        C  0.30354994  0.76095258  0.26349438     0.05100
C451        C  0.34583948  0.76989104  0.33595225     0.27500
C452        C  0.33253345  0.78603757  0.34767351    -0.13000
C453        C  0.35159186  0.79507451  0.37181767     0.05600
C454        C  0.38270999  0.78616795  0.38593225    -0.08900
C455        C  0.39567574  0.76977340  0.37396780     0.06400
C456        C  0.37808804  0.76271056  0.34859417    -0.13300
Br457      Br  0.33431023  0.80117406  0.28812010    -0.05400
Br458      Br  0.30026280  0.69512777  0.28645603     0.00300
Br459      Br  0.33520413  0.82023938  0.38476324     0.00700
Br460      Br  0.39792267  0.74260269  0.33116462    -0.03700
Br461      Br  0.28866868  0.77844810  0.23239531     0.00800
Br462      Br  0.32226892  0.72237511  0.34192529    -0.03000
Br463      Br  0.28766274  0.79499684  0.33123955    -0.03800
Br464      Br  0.43568848  0.75474213  0.39243889     0.00100
C465        C  0.91784170  0.30447937  0.46969605     0.01500
C466        C  0.92541556  0.29033115  0.49130496     0.04400
C467        C  0.95800118  0.28747945  0.50757337    -0.11700
C468        C  0.98334026  0.29740622  0.50135713     0.23700
C469        C  0.97612230  0.31033207  0.47893631    -0.12300
C470        C  0.94342400  0.31454069  0.46362721     0.05100
C471        C  0.01751247  0.29478542  0.51898647     0.27500
C472        C  0.03246483  0.31144551  0.53695940    -0.13000
C473        C  0.06464049  0.30876211  0.55419255     0.05600
C474        C  0.08168927  0.28935329  0.55363016    -0.08900
C475        C  0.06658028  0.27254716  0.53599469     0.06400
C476        C  0.03462119  0.27536007  0.51845431    -0.13300
Br477      Br  0.01124018  0.32242941  0.46952194    -0.05400
Br478      Br  0.89151568  0.27417518  0.49848522     0.00300
Br479      Br  0.08554693  0.33159611  0.57856478     0.00700
Br480      Br  0.01434799  0.25281512  0.49342261    -0.03700
Br481      Br  0.93415483  0.33545530  0.43575202     0.00800
Br482      Br  0.96806449  0.27045605  0.53891133    -0.03000
Br483      Br  0.00878482  0.33790422  0.53789918    -0.03800
Br484      Br  0.08977652  0.24568720  0.53597587     0.00100
C485        C  0.82462302  0.30738006  0.38503651     0.01500
C486        C  0.81788387  0.32552377  0.36822208     0.04400
C487        C  0.80771791  0.32228626  0.34120778    -0.11700
C488        C  0.80426730  0.30092146  0.33099167     0.23700
C489        C  0.81014599  0.28280646  0.34776479    -0.12300
C490        C  0.82025299  0.28601884  0.37472852     0.05100
C491        C  0.79594558  0.29717092  0.30276624     0.27500
C492        C  0.76326348  0.29362075  0.28677751    -0.13000
C493        C  0.75601911  0.28638798  0.26105695     0.05600
C494        C  0.78145116  0.28298056  0.25120163    -0.08900
C495        C  0.81393859  0.28785337  0.26673348     0.06400
C496        C  0.82117260  0.29492245  0.29249468    -0.13300
Br497      Br  0.80499172  0.25354151  0.33367057    -0.05400
Br498      Br  0.82392991  0.35479286  0.38227788     0.00300
Br499      Br  0.71153742  0.27955974  0.24001974     0.00700
Br500      Br  0.86576604  0.30074435  0.31419015    -0.03700
Br501      Br  0.82788392  0.26114370  0.39756969     0.00800
Br502      Br  0.79928934  0.34699238  0.31814114    -0.03000
Br503      Br  0.72870367  0.29783813  0.30059726    -0.03800
Br504      Br  0.84856662  0.28464600  0.25278123     0.00100
C505        C  0.83499693  0.02511969  0.13710322     0.01500
C506        C  0.85250489  0.04046883  0.15605983     0.04400
C507        C  0.84105853  0.06207230  0.15508215    -0.11700
C508        C  0.81223154  0.06849548  0.13512902     0.23700
C509        C  0.79436436  0.05313447  0.11648731    -0.12300
C510        C  0.80553662  0.03143643  0.11758339     0.05100
C511        C  0.80075266  0.09143328  0.13408062     0.27500
C512        C  0.77928592  0.09742306  0.14701801    -0.13000
C513        C  0.77058548  0.11948916  0.14796920     0.05600
C514        C  0.78314546  0.13567722  0.13576034    -0.08900
C515        C  0.80407888  0.12952661  0.12225713     0.06400
C516        C  0.81277259  0.10744437  0.12140272    -0.13300
Br517      Br  0.75444476  0.06191080  0.08961031    -0.05400
Br518      Br  0.89282810  0.03230601  0.18293177     0.00300
Br519      Br  0.74076401  0.12730523  0.16549807     0.00700
Br520      Br  0.84172275  0.09900728  0.10330668    -0.03700
Br521      Br  0.77925970  0.01014384  0.09325097     0.00800
Br522      Br  0.86481355  0.08306691  0.18106659    -0.03000
Br523      Br  0.76206730  0.07523757  0.16356739    -0.03800
Br524      Br  0.82274742  0.15135397  0.10629674     0.00100
C525        C  0.98453826  0.80153441  0.43670873     0.01500
C526        C  0.00697431  0.81863778  0.43850911     0.04400
C527        C  0.03966135  0.81663444  0.45521455    -0.11700
C528        C  0.04954705  0.79830692  0.47157894     0.23700
C529        C  0.02728837  0.78122860  0.46974873    -0.12300
C530        C  0.99541824  0.78241866  0.45154942     0.05100
C531        C  0.08295214  0.79739599  0.49132300     0.27500
C532        C  0.10659218  0.78311874  0.48813279    -0.13000
C533        C  0.13777272  0.78178613  0.50744445     0.05600
C534        C  0.14692630  0.79670535  0.52856283    -0.08900
C535        C  0.12332112  0.81170349  0.53096111     0.06400
C536        C  0.09104792  0.81099072  0.51334519    -0.13300
Br537      Br  0.04015464  0.75644559  0.49275390    -0.05400
Br538      Br  0.99300656  0.84532500  0.41923471     0.00300
Br539      Br  0.16684327  0.75860948  0.50525329     0.00700
Br540      Br  0.05764895  0.82869087  0.51934181    -0.03700
Br541      Br  0.96766092  0.75711271  0.44578653     0.00800
Br542      Br  0.07107515  0.83902378  0.45586729    -0.03000
Br543      Br  0.09646897  0.76586394  0.45684759    -0.03800
Br544      Br  0.13492962  0.83488793  0.55647013     0.00100
C545        C  0.89905483  0.81647044  0.35061739     0.01500
C546        C  0.89279477  0.80173593  0.32971378     0.04400
C547        C  0.88707713  0.80972069  0.30448817    -0.11700
C548        C  0.88703107  0.83243157  0.30021000     0.23700
C549        C  0.89098119  0.84710744  0.32083789    -0.12300
C550        C  0.89785761  0.83917619  0.34607315     0.05100
C551        C  0.88668859  0.84125081  0.27504778     0.27500
C552        C  0.91660307  0.84671488  0.27217540    -0.13000
C553        C  0.91684902  0.85865836  0.25045186     0.05600
C554        C  0.88718080  0.86499460  0.23143432    -0.08900
C555        C  0.85725924  0.85872499  0.23372344     0.06400
C556        C  0.85700078  0.84683946  0.25552419    -0.13300
Br557      Br  0.88770211  0.87820072  0.31445498    -0.05400
Br558      Br  0.89312112  0.77075076  0.33592957     0.00300
Br559      Br  0.95778792  0.86744453  0.24747500     0.00700
Br560      Br  0.81616497  0.83903499  0.25932794    -0.03700
Br561      Br  0.90758350  0.85956012  0.37460047     0.00800
Br562      Br  0.87999879  0.78975084  0.27589430    -0.03000
Br563      Br  0.95725526  0.83871608  0.29880949    -0.03800
Br564      Br  0.81667444  0.86702425  0.20730686     0.00100
C565        C  0.87172382  0.81429275  0.92532549     0.01500
C566        C  0.89309899  0.81009513  0.95087156     0.04400
C567        C  0.89609815  0.82534041  0.97074361    -0.11700
C568        C  0.87868423  0.84514769  0.96510980     0.23700
C569        C  0.85970623  0.85028268  0.93936618    -0.12300
C570        C  0.85575115  0.83481052  0.91949685     0.05100
C571        C  0.87765901  0.85940838  0.98663054     0.27500
C572        C  0.85251964  0.85645288  0.99683341    -0.13000
C573        C  0.85282375  0.86833078  0.01881036     0.05600
C574        C  0.87833767  0.88319793  0.03071346    -0.08900
C575        C  0.90252703  0.88703172  0.01963878     0.06400
C576        C  0.90218432  0.87510380  0.99759670    -0.13300
Br577      Br  0.83829363  0.87835583  0.93176356    -0.05400
Br578      Br  0.91952471  0.78393227  0.95882232     0.00300
Br579      Br  0.81775623  0.86455929  0.03218833     0.00700
Br580      Br  0.93551527  0.87980678  0.98261649    -0.03700
Br581      Br  0.82633515  0.84153748  0.88498836     0.00800
Br582      Br  0.92336545  0.81890457  0.00598884    -0.03000
Br583      Br  0.81792847  0.83576401  0.98083577    -0.03800
Br584      Br  0.93702592  0.90777944  0.03533630     0.00100
C585        C  0.65709630  0.81957032  0.51907384     0.01500
C586        C  0.64029103  0.83392810  0.49858749     0.04400
C587        C  0.60619949  0.83217237  0.48633912    -0.11700
C588        C  0.58823128  0.81794812  0.49638088     0.23700
C589        C  0.60451635  0.80554072  0.51866090    -0.12300
C590        C  0.63879599  0.80511583  0.52882932     0.05100
C591        C  0.55266029  0.81453763  0.48269518     0.27500
C592        C  0.52980414  0.83064140  0.48323787    -0.13000
C593        C  0.49617473  0.82676385  0.47070969     0.05600
C594        C  0.48504565  0.80583368  0.46061209    -0.08900
C595        C  0.50803707  0.78942300  0.46135460     0.06400
C596        C  0.54155949  0.79428044  0.47054077    -0.13300
Br597      Br  0.57958465  0.78868145  0.53493436    -0.05400
Br598      Br  0.66336514  0.85660270  0.48761688     0.00300
Br599      Br  0.46567016  0.85037004  0.46665856     0.00700
Br600      Br  0.57239538  0.77301001  0.46680171    -0.03700
Br601      Br  0.65963094  0.78270898  0.55391160     0.00800
Br602      Br  0.58437175  0.84849019  0.45509692    -0.03000
Br603      Br  0.54439079  0.85744944  0.50233031    -0.03800
Br604      Br  0.49431586  0.75967669  0.45270554     0.00100
C605        C  0.76310506  0.81320785  0.50328772     0.01500
C606        C  0.78627269  0.82964847  0.50462866     0.04400
C607        C  0.80574572  0.82819912  0.48904674    -0.11700
C608        C  0.80025862  0.81132380  0.47050141     0.23700
C609        C  0.77523887  0.79593891  0.46763827    -0.12300
C610        C  0.75765708  0.79629288  0.48473724     0.05100
C611        C  0.82202045  0.80901639  0.45511145     0.27500
C612        C  0.81999925  0.82385468  0.43513449    -0.13000
C613        C  0.84313410  0.82303383  0.42261293     0.05600
C614        C  0.86628234  0.80577172  0.42799592    -0.08900
C615        C  0.86580240  0.78968550  0.44629291     0.06400
C616        C  0.84532110  0.79212899  0.46093366    -0.13300
Br617      Br  0.76522415  0.77437747  0.44026367    -0.05400
Br618      Br  0.79050837  0.85467972  0.52707371     0.00300
Br619      Br  0.84387559  0.84675767  0.39981842     0.00700
Br620      Br  0.85001236  0.77274519  0.48970373    -0.03700
Br621      Br  0.72775969  0.77280691  0.48370519     0.00800
Br622      Br  0.84067065  0.84893178  0.49376645    -0.03000
Br623      Br  0.78552962  0.84542375  0.42516247    -0.03800
Br624      Br  0.89096791  0.76325362  0.45023540     0.00100
C625        C  0.81391896  0.77279608  0.72367577     0.01500
C626        C  0.83769274  0.78061282  0.71391847     0.04400
C627        C  0.82811938  0.78934160  0.68876053    -0.11700
C628        C  0.79475651  0.79049545  0.67348375     0.23700
C629        C  0.77093461  0.78335403  0.68357122    -0.12300
C630        C  0.78051310  0.77437801  0.70859982     0.05100
C631        C  0.78469490  0.79714332  0.64596858     0.27500
C632        C  0.77849934  0.81924729  0.63881708    -0.13000
C633        C  0.76655465  0.82502070  0.61240598     0.05600
C634        C  0.76064218  0.80867269  0.59320219    -0.08900
C635        C  0.76770707  0.78661929  0.60046790     0.06400
C636        C  0.77990937  0.78091587  0.62680454    -0.13300
Br637      Br  0.72520113  0.78568091  0.66282702    -0.05400
Br638      Br  0.88342878  0.77870264  0.73474768     0.00300
Br639      Br  0.75815745  0.85523143  0.60240299     0.00700
Br640      Br  0.78920287  0.75071305  0.63682708    -0.02100
Br641      Br  0.74788986  0.76461237  0.72240858     0.00800
Br642      Br  0.86056789  0.79925429  0.67486867    -0.03000
Br643      Br  0.78563392  0.84139913  0.66522594    -0.03800
Br644      Br  0.75885285  0.76393600  0.57441456     0.00100
C645        C  0.76773471  0.36723944  0.95645013     0.01500
C646        C  0.74128843  0.37116120  0.96503269     0.04400
C647        C  0.73549039  0.35696569  0.98301445    -0.11700
C648        C  0.75528706  0.33839468  0.99174020     0.23700
C649        C  0.78129972  0.33418712  0.98287049    -0.12300
C650        C  0.78799512  0.34880791  0.96570278     0.05100
C651        C  0.74923404  0.32360981  0.01083376     0.27500
C652        C  0.76630297  0.32679985  0.03745839    -0.13000
C653        C  0.76071989  0.31286058  0.05573855     0.05600
C654        C  0.73666266  0.29629563  0.04748199    -0.08900
C655        C  0.71956841  0.29317552  0.02068459     0.06400
C656        C  0.72631019  0.30657462  0.00241533    -0.13300
Br657      Br  0.80753413  0.30823107  0.99421242    -0.05400
Br658      Br  0.71163795  0.39511611  0.95109207     0.00300
Br659      Br  0.78819797  0.31569747  0.09173087     0.00700
Br660      Br  0.70431765  0.30170218  0.96575627    -0.03700
Br661      Br  0.82605673  0.34398743  0.95613852     0.00800
Br662      Br  0.70033433  0.36279390  0.99577681    -0.03000
Br663      Br  0.79740052  0.35042169  0.04875182    -0.03800
Br664      Br  0.68592936  0.27119247  0.00879133     0.00100
C665        C  0.82972521  0.52619783  0.88438566     0.01500
C666        C  0.84330186  0.53872777  0.90729993     0.04400
C667        C  0.84706096  0.56151559  0.90575478    -0.11700
C668        C  0.83839694  0.57174102  0.88139177     0.23700
C669        C  0.82509640  0.55931221  0.85857464    -0.12300
C670        C  0.81971531  0.53680063  0.86002032     0.05100
C671        C  0.84195016  0.59571541  0.87936775     0.27500
C672        C  0.81577900  0.60961605  0.87829038    -0.13000
C673        C  0.81732608  0.63201646  0.87314540     0.05600
C674        C  0.84483549  0.64051991  0.86859240    -0.08900
C675        C  0.87138889  0.62670223  0.87033973     0.06400
C676        C  0.87011052  0.60437720  0.87605976    -0.13300
Br677      Br  0.81440875  0.57329586  0.82519116    -0.05400
Br678      Br  0.85829647  0.52482869  0.94084045     0.00300
Br679      Br  0.78094618  0.65079166  0.87098473     0.00700
Br680      Br  0.90656666  0.58545065  0.87895075    -0.03700
Br681      Br  0.79613352  0.52119563  0.82842266     0.00800
Br682      Br  0.86437176  0.57886685  0.93689502    -0.03000
Br683      Br  0.77733330  0.59767453  0.88296227    -0.03800
Br684      Br  0.90951447  0.63836737  0.86493615     0.00100
C685        C  0.42578392  0.33056141  0.49801733     0.01500
C686        C  0.44387026  0.31635008  0.51819568     0.04400
C687        C  0.47738065  0.31994074  0.53150492    -0.11700
C688        C  0.49399982  0.33631015  0.52311165     0.23700
C689        C  0.47634482  0.35022445  0.50260782    -0.12300
C690        C  0.44226286  0.34787870  0.49072907     0.05100
C691        C  0.53014910  0.33840519  0.53519580     0.27500
C692        C  0.54401825  0.35658260  0.55095277    -0.13000
C693        C  0.57806102  0.35972937  0.56005135     0.05600
C694        C  0.59885779  0.34344046  0.55594414    -0.08900
C695        C  0.58491618  0.32439751  0.54180849     0.06400
C696        C  0.55073847  0.32240489  0.53046958    -0.13300
Br697      Br  0.49897448  0.37245886  0.49054962    -0.05400
Br698      Br  0.42412122  0.29067159  0.52648274     0.00300
Br699      Br  0.59551910  0.38719711  0.57650978     0.00700
Br700      Br  0.53212159  0.29783485  0.50806523    -0.03700
Br701      Br  0.41842681  0.36915728  0.46522868     0.00800
Br702      Br  0.50061246  0.30257464  0.56159098    -0.03000
Br703      Br  0.51629681  0.37700165  0.56046140    -0.03800
Br704      Br  0.61224776  0.30033158  0.53911128     0.00100
C705        C  0.70898622  0.34588340  0.54514668     0.01500
C706        C  0.73473105  0.33043631  0.55267910     0.04400
C707        C  0.75525929  0.32799037  0.53805166    -0.11700
C708        C  0.74900021  0.33989486  0.51496309     0.23700
C709        C  0.72325922  0.35516836  0.50727632    -0.12300
C710        C  0.70395827  0.35867180  0.52276648     0.05100
C711        C  0.76891293  0.33576349  0.49840910     0.27500
C712        C  0.79376497  0.35047399  0.49853336    -0.13000
C713        C  0.81263806  0.34638314  0.48285054     0.05600
C714        C  0.80776887  0.32700751  0.46796395    -0.08900
C715        C  0.78356075  0.31195777  0.46854915     0.06400
C716        C  0.76352193  0.31667929  0.48308235    -0.13300
Br717      Br  0.71420916  0.37101615  0.47525698    -0.05400
Br718      Br  0.74132499  0.31174398  0.58234724     0.00300
Br719      Br  0.84495621  0.36744664  0.48164335     0.00700
Br720      Br  0.72884159  0.29683912  0.48231960    -0.03700
Br721      Br  0.67199749  0.38186181  0.51403776     0.00800
Br722      Br  0.79214482  0.30831760  0.54959121    -0.03000
Br723      Br  0.80256544  0.37584412  0.52085612    -0.03800
Br724      Br  0.77946293  0.28400372  0.45124065     0.00100
C725        C  0.69951192  0.36126462  0.63083195     0.01500
C726        C  0.70844614  0.34481164  0.64984314     0.04400
C727        C  0.72375685  0.35049836  0.67603598    -0.11700
C728        C  0.73049652  0.37259495  0.68310149     0.23700
C729        C  0.72193802  0.38902031  0.66404369    -0.12300
C730        C  0.70624236  0.38336095  0.63789371     0.05100
C731        C  0.74589929  0.37858932  0.71068897     0.27500
C732        C  0.72613543  0.38410701  0.72524659    -0.13000
C733        C  0.74061705  0.38950011  0.75160692     0.05600
C734        C  0.77496282  0.38921804  0.76344994    -0.08900
C735        C  0.79469360  0.38379035  0.74879777     0.06400
C736        C  0.78014879  0.37855570  0.72237134    -0.13300
Br737      Br  0.73178985  0.41920467  0.67389617    -0.05400
Br738      Br  0.70030548  0.31451482  0.63986144     0.00300
Br739      Br  0.71321219  0.39798966  0.77104616     0.00700
Br740      Br  0.80693083  0.37122974  0.70206236    -0.03700
Br741      Br  0.69349444  0.40583206  0.61172513     0.00800
Br742      Br  0.73547762  0.32813554  0.70233609    -0.03000
Br743      Br  0.67918118  0.38425356  0.70888057    -0.03800
Br744      Br  0.84155201  0.38265108  0.76518632     0.00100
loop_ 
_geom_bond_atom_site_label_1 
_geom_bond_atom_site_label_2 
_geom_bond_distance 
_geom_bond_site_symmetry_2 
_ccdc_geom_bond_type 
C1            C2   1.398       .  A
C1            C6   1.395       .  A
C1          C725   1.469       .  S
C2            C3   1.404       .  A
C2            H7   1.084       .  S
C3            C4   1.410       .  A
C3          C694   1.491       .  S
C4            C5   1.408       .  A
C4            H8   1.084       .  S
C5            C6   1.399       .  A
C5          C705   1.484       .  S
C6            H9   1.084       .  S
N10          N11   1.323       .  A
N10          C14   1.348       .  A
N10         Cu18   2.088       .  S
N11          C12   1.341       .  A
N11         Cu17   2.066       .  S
C12          C13   1.382       .  A
C12          H15   1.082       .  S
C13          C14   1.389       .  A
C13         C665   1.486       .  S
C14          H16   1.082       .  S
Cu17         N20   2.066       .  S
Cu18         N28   2.088       .  S
Cu19         N21   2.049       .  S
Cu19         N27   2.050       .  S
N20          N21   1.319       .  A
N20          C24   1.345       .  A
N21          C22   1.341       .  A
C22          C23   1.379       .  A
C22          H25   1.080       .  S
C23          C24   1.383       .  A
C23         C734   1.471       .  S
C24          H26   1.081       .  S
N27          N28   1.322       .  A
N27          C31   1.340       .  A
N28          C29   1.348       .  A
C29          C30   1.388       .  A
C29          H32   1.081       .  S
C30          C31   1.378       .  A
C30         C645   1.479       .  S
C31          H33   1.080       .  S
C34          C35   1.401       .  A
C34          C39   1.400       .  A
C34         C634   1.477       .  S
C35          C36   1.405       .  A
C35          H40   1.083       .  S
C36          C37   1.406       .  A
C36         C585   1.492       .  S
C37          C38   1.402       .  A
C37          H41   1.083       .  S
C38          C39   1.402       .  A
C38         C605   1.480       .  S
C39          H42   1.084       .  S
N43          N44   1.324       .  A
N43          C47   1.346       .  A
N43         Cu51   2.079       .  S
N44          C45   1.347       .  A
N44         Cu50   2.085       .  S
C45          C46   1.383       .  A
C45          H48   1.081       .  S
C46          C47   1.381       .  A
C46         C674   1.478       .  S
C47          H49   1.082       .  S
Cu50         N53   2.084       .  S
Cu51         N61   2.079       .  S
Cu52         N54   2.052       .  S
Cu52         N60   2.052       .  S
N53          N54   1.322       .  A
N53          C57   1.348       .  A
N54          C55   1.341       .  A
C55          C56   1.376       .  A
C55          H58   1.080       .  S
C56          C57   1.385       .  A
C56         C625   1.471       .  S
C57          H59   1.081       .  S
N60          N61   1.319       .  A
N60          C64   1.343       .  A
N61          C62   1.345       .  A
C62          C63   1.389       .  A
C62          H65   1.082       .  S
C63          C64   1.383       .  A
C63         C565   1.484       .  S
C64          H66   1.081       .  S
C67          C68   1.402       .  A
C67          C72   1.402       .  A
C67         C545   1.477       .  S
C68          C69   1.405       .  A
C68          H73   1.083       .  S
C69          C70   1.409       .  A
C69         C614   1.495       .  S
C70          C71   1.407       .  A
C70          H74   1.083       .  S
C71          C72   1.403       .  A
C71         C525   1.489       .  S
C72          H75   1.084       .  S
N76          N77   1.323       .  A
N76          C80   1.345       .  A
N76         Cu84   2.075       .  S
N77          C78   1.345       .  A
N77         Cu83   2.074       .  S
C78          C79   1.383   1_565  A
C78          H81   1.082       .  S
C79          C80   1.384   1_545  A
C79         C505   1.481       .  S
C80          H82   1.082       .  S
Cu83         N86   2.074       .  S
Cu84         N94   2.075       .  S
Cu85         N87   2.074       .  S
Cu85         N93   2.074       .  S
N86          N87   1.322       .  A
N86          C90   1.345       .  A
N87          C88   1.347       .  A
C88          C89   1.382       .  A
C88          H91   1.081       .  S
C89          C90   1.381       .  A
C89         C554   1.474       .  S
C90          H92   1.082       .  S
N93          N94   1.323       .  A
N93          C97   1.344       .  A
N94          C95   1.347       .  A
C95          C96   1.383       .  A
C95          H98   1.081       .  S
C96          C97   1.382       .  A
C96         C574   1.477       .  S
C97          H99   1.079       .  S
C100        C101   1.403       .  A
C100        C105   1.403       .  A
C100        C485   1.479       .  S
C101        C102   1.403       .  A
C101        H106   1.084       .  S
C102        C103   1.401       .  A
C102        C465   1.484       .  S
C103        C104   1.399       .  A
C103        H107   1.084       .  S
C104        C105   1.403       .  A
C104        C714   1.480       .  S
C105        H108   1.084       .  S
N109        N110   1.321       .  A
N109        C113   1.345       .  A
N109       Cu117   2.068       .  S
N110        C111   1.346       .  A
N110       Cu116   2.080       .  S
C111        C112   1.386       .  A
C111        H114   1.081       .  S
C112        C113   1.383       .  A
C112        C514   1.482       .  S
C113        H115   1.082       .  S
Cu116       N119   2.080       .  S
Cu117       N127   2.068       .  S
Cu118       N120   2.076       .  S
Cu118       N126   2.074       .  S
N119        N120   1.323       .  A
N119        C123   1.345       .  A
N120        C121   1.347       .  A
C121        C122   1.383       .  A
C121        H124   1.080       .  S
C122        C123   1.382       .  A
C122        C494   1.477       .  S
C123        H125   1.081       .  S
N126        N127   1.322       .  A
N126        C130   1.344       .  A
N127        C128   1.344       .  A
C128        C129   1.383       .  A
C128        H131   1.082       .  S
C129        C130   1.386       .  A
C129        C654   1.482       .  S
C130        H132   1.081       .  S
C133        C134   1.408       .  A
C133        C138   1.406       .  A
C133        C454   1.499       .  S
C134        C135   1.407       .  A
C134        H139   1.084       .  S
C135        C136   1.405       .  A
C135        C594   1.486       .  S
C136        C137   1.406       .  A
C136        H140   1.083       .  S
C137        C138   1.406       .  A
C137        C434   1.499       .  S
C138        H141   1.082       .  S
N142        N143   1.322       .  A
N142        C146   1.342       .  A
N142       Cu150   2.065       .  S
N143        C144   1.347       .  A
N143       Cu149   2.078       .  S
C144        C145   1.385       .  A
C144        H147   1.081       .  S
C145        C146   1.381       .  A
C145        C405   1.477       .  S
C146        H148   1.083       .  S
Cu149       N152   2.078       .  S
Cu150       N160   2.066       .  S
Cu151       N153   2.074       .  S
Cu151       N159   2.075       .  S
N152        N153   1.321       .  A
N152        C156   1.346       .  A
N153        C154   1.343       .  A
C154        C155   1.386       .  A
C154        H157   1.083       .  S
C155        C156   1.388       .  A
C155        C445   1.490       .  S
C156        H158   1.081       .  S
N159        N160   1.322       .  A
N159        C163   1.345       .  A
N160        C161   1.345       .  A
C161        C162   1.382       .  A
C161        H164   1.081       .  S
C162        C163   1.384       .  A
C162        C394   1.476       .  S
C163        H165   1.080       .  S
C166        C167   1.403       .  A
C166        C171   1.402       .  A
C166        C365   1.481       .  S
C167        C168   1.408       .  A
C167        H172   1.084       .  S
C168        C169   1.408       .  A
C168        C685   1.495       .  S
C169        C170   1.406       .  A
C169        H173   1.083       .  S
C170        C171   1.402       .  A
C170        C345   1.484       .  S
C171        H174   1.084       .  S
N175        N176   1.322       .  A
N175        C179   1.346       .  A
N175       Cu183   2.076       .  S
N176        C177   1.343       .  A
N176       Cu182   2.068       .  S
C177        C178   1.383       .  A
C177        H180   1.082       .  S
C178        C179   1.386       .  A
C178        C414   1.482       .  S
C179        H181   1.082       .  S
Cu182       N185   2.068       .  S
Cu183       N193   2.077       .  S
Cu184       N186   2.073       .  S
Cu184       N192   2.073       .  S
N185        N186   1.322       .  A
N185        C189   1.343       .  A
N186        C187   1.346       .  A
C187        C188   1.383       .  A
C187        H190   1.080       .  S
C188        C189   1.381       .  A
C188        C374   1.475       .  S
C189        H191   1.081       .  S
N192        N193   1.322       .  A
N192        C196   1.345       .  A
N193        C194   1.346       .  A
C194        C195   1.386       .  A
C194        H197   1.081       .  S
C195        C196   1.385       .  A
C195        C325   1.485       .  S
C196        H198   1.079       .  S
C199        C200   1.402       .  A
C199        C204   1.403       .  A
C199        C305   1.478       .  S
C200        C201   1.403       .  A
C200        H205   1.084       .  S
C201        C202   1.403       .  A
C201        C425   1.486       .  S
C202        C203   1.404       .  A
C202        H206   1.083       .  S
C203        C204   1.407       .  A
C203        C534   1.495       .  S
C204        H207   1.083       .  S
N208        N209   1.321       .  A
N208        C212   1.349       .  A
N208       Cu216   2.081       .  S
N209        C210   1.341       .  A
N209       Cu215   2.062       .  S
C210        C211   1.381       .  A
C210        H213   1.081       .  S
C211        C212   1.388       .  A
C211        C285   1.481       .  S
C212        H214   1.082       .  S
Cu215       N218   2.062       .  S
Cu216       N226   2.082       .  S
Cu217       N219   2.081       .  S
Cu217       N225   2.082       .  S
N218        N219   1.321       .  A
N218        C222   1.344       .  A
N219        C220   1.347       .  A
C220        C221   1.385       .  A
C220        H223   1.081       .  S
C221        C222   1.380       .  A
C221        C314   1.476       .  S
C222        H224   1.081       .  S
N225        N226   1.325       .  A
N225        C229   1.346       .  A
N226        C227   1.345       .  A
C227        C228   1.382       .  A
C227        H230   1.082       .  S
C228        C229   1.383       .  A
C228        C385   1.478       .  S
C229        H231   1.081       .  S
C232        C233   1.402       .  A
C232        C237   1.405       .  A
C232        C274   1.477       .  S
C233        C234   1.399       .  A
C233        H238   1.084       .  S
C234        C235   1.397       .  A
C234        C474   1.470       .  S
C235        C236   1.401       .  A
C235        H239   1.085       .  S
C236        C237   1.407       .  A
C236        C354   1.484       .  S
C237        H240   1.084       .  S
N241        N242   1.322       .  A
N241        C245   1.345       .  A
N241       Cu249   2.078       .  S
N242        C243   1.345       .  A
N242       Cu248   2.073       .  S
C243        C244   1.385       .  A
C243        H246   1.082       .  S
C244        C245   1.386       .  A
C244        C294   1.486       .  S
C245        H247   1.082       .  S
Cu248       N251   2.073       .  S
Cu249       N259   2.079       .  S
Cu250       N252   2.078       .  S
Cu250       N258   2.079       .  S
N251        N252   1.323       .  A
N251        C255   1.344       .  A
N252        C253   1.348       .  A
C253        C254   1.384       .  A
C253        H256   1.080       .  S
C254        C255   1.381       .  A
C254        C265   1.475       .  S
C255        H257   1.081       .  S
N258        N259   1.323       .  A
N258        C262   1.345       .  A
N259        C260   1.347       .  A
C260        C261   1.384       .  A
C260        H263   1.081       .  S
C261        C262   1.383       .  A
C261        C334   1.480       .  S
C262        H264   1.080       .  S
C265        C266   1.409       .  A
C265        C270   1.408       .  A
C266        C267   1.407       .  A
C266       Br278   1.930       .  S
C267        C268   1.410       .  A
C267       Br282   1.930       .  S
C268        C269   1.410       .  A
C268        C271   1.485       .  S
C269        C270   1.408       .  A
C269       Br277   1.930       .  S
C270       Br281   1.928       .  S
C271        C272   1.411       .  A
C271        C276   1.410       .  A
C272        C273   1.408       .  A
C272       Br283   1.929       .  S
C273        C274   1.408       .  A
C273       Br279   1.929       .  S
C274        C275   1.409       .  A
C275        C276   1.406       .  A
C275       Br284   1.930       .  S
C276       Br280   1.930       .  S
C285        C286   1.413       .  A
C285        C290   1.412       .  A
C286        C287   1.409       .  A
C286       Br298   1.929       .  S
C287        C288   1.408   1_565  A
C287       Br302   1.929   1_565  S
C288        C289   1.408       .  A
C288        C291   1.485       .  S
C289        C290   1.406   1_545  A
C289       Br297   1.931       .  S
C290       Br301   1.932       .  S
C291        C292   1.408       .  A
C291        C296   1.406       .  A
C292        C293   1.409       .  A
C292       Br303   1.931       .  S
C293        C294   1.415       .  A
C293       Br299   1.931       .  S
C294        C295   1.415       .  A
C295        C296   1.407       .  A
C295       Br304   1.931       .  S
C296       Br300   1.930       .  S
C305        C306   1.409       .  A
C305        C310   1.408       .  A
C306        C307   1.405       .  A
C306       Br318   1.930       .  S
C307        C308   1.409       .  A
C307       Br322   1.930       .  S
C308        C309   1.411       .  A
C308        C311   1.485       .  S
C309        C310   1.409       .  A
C309       Br317   1.929       .  S
C310       Br321   1.928       .  S
C311        C312   1.410       .  A
C311        C316   1.410       .  A
C312        C313   1.407       .  A
C312       Br323   1.930       .  S
C313        C314   1.409       .  A
C313       Br319   1.930       .  S
C314        C315   1.410       .  A
C315        C316   1.408       .  A
C315       Br324   1.929       .  S
C316       Br320   1.929       .  S
C325        C326   1.415       .  A
C325        C330   1.414       .  A
C326        C327   1.408       .  A
C326       Br338   1.931       .  S
C327        C328   1.408       .  A
C327       Br342   1.931       .  S
C328        C329   1.409       .  A
C328        C331   1.486       .  S
C329        C330   1.408       .  A
C329       Br337   1.931       .  S
C330       Br341   1.931       .  S
C331        C332   1.409       .  A
C331        C336   1.409   1_554  A
C332        C333   1.408   1_554  A
C332       Br343   1.931       .  S
C333        C334   1.412       .  A
C333       Br339   1.930       .  S
C334        C335   1.412       .  A
C335        C336   1.408       .  A
C335       Br344   1.930       .  S
C336       Br340   1.930       .  S
C345        C346   1.412       .  A
C345        C350   1.411       .  A
C346        C347   1.409       .  A
C346       Br358   1.927       .  S
C347        C348   1.409       .  A
C347       Br362   1.929       .  S
C348        C349   1.407       .  A
C348        C351   1.483       .  S
C349        C350   1.403       .  A
C349       Br357   1.932       .  S
C350       Br361   1.924       .  S
C351        C352   1.408       .  A
C351        C356   1.408       .  A
C352        C353   1.409       .  A
C352       Br363   1.929       .  S
C353        C354   1.414       .  A
C353       Br359   1.931       .  S
C354        C355   1.414       .  A
C355        C356   1.404       .  A
C355       Br364   1.932       .  S
C356       Br360   1.933       .  S
C365        C366   1.410       .  A
C365        C370   1.411       .  A
C366        C367   1.409       .  A
C366       Br378   1.928       .  S
C367        C368   1.410       .  A
C367       Br382   1.929       .  S
C368        C369   1.409       .  A
C368        C371   1.484       .  S
C369        C370   1.406       .  A
C369       Br377   1.931       .  S
C370       Br381   1.929       .  S
C371        C372   1.410       .  A
C371        C376   1.410       .  A
C372        C373   1.406       .  A
C372       Br383   1.931       .  S
C373        C374   1.410       .  A
C373       Br379   1.930       .  S
C374        C375   1.409       .  A
C375        C376   1.407       .  A
C375       Br384   1.930       .  S
C376       Br380   1.929       .  S
C385        C386   1.411       .  A
C385        C390   1.411       .  A
C386        C387   1.407       .  A
C386       Br398   1.929       .  S
C387        C388   1.408       .  A
C387       Br402   1.930   1_556  S
C388        C389   1.409       .  A
C388        C391   1.483   1_556  S
C389        C390   1.407       .  A
C389       Br397   1.930       .  S
C390       Br401   1.930       .  S
C391        C392   1.409       .  A
C391        C396   1.409       .  A
C392        C393   1.408       .  A
C392       Br403   1.929       .  S
C393        C394   1.411       .  A
C393       Br399   1.930       .  S
C394        C395   1.410       .  A
C395        C396   1.405       .  A
C395       Br404   1.931       .  S
C396       Br400   1.931       .  S
C405        C406   1.412       .  A
C405        C410   1.409       .  A
C406        C407   1.404       .  A
C406       Br418   1.932       .  S
C407        C408   1.409       .  A
C407       Br422   1.932       .  S
C408        C409   1.411       .  A
C408        C411   1.484       .  S
C409        C410   1.409       .  A
C409       Br417   1.929       .  S
C410       Br421   1.929       .  S
C411        C412   1.409       .  A
C411        C416   1.409       .  A
C412        C413   1.408       .  A
C412       Br423   1.930       .  S
C413        C414   1.414       .  A
C413       Br419   1.931       .  S
C414        C415   1.414       .  A
C415        C416   1.406       .  A
C415       Br424   1.932       .  S
C416       Br420   1.932       .  S
C425        C426   1.415       .  A
C425        C430   1.413       .  A
C426        C427   1.408       .  A
C426       Br438   1.931       .  S
C427        C428   1.408       .  A
C427       Br442   1.931       .  S
C428        C429   1.410       .  A
C428        C431   1.486       .  S
C429        C430   1.406       .  A
C429       Br437   1.932       .  S
C430       Br441   1.933       .  S
C431        C432   1.405       .  A
C431        C436   1.408       .  A
C432        C433   1.406       .  A
C432       Br443   1.934       .  S
C433        C434   1.420       .  A
C433       Br439   1.925       .  S
C434        C435   1.419       .  A
C435        C436   1.409       .  A
C435       Br444   1.934       .  S
C436       Br440   1.931       .  S
C445        C446   1.417       .  A
C445        C450   1.416       .  A
C446        C447   1.408       .  A
C446       Br458   1.932       .  S
C447        C448   1.410       .  A
C447       Br462   1.933       .  S
C448        C449   1.408       .  A
C448        C451   1.488       .  S
C449        C450   1.407       .  A
C449       Br457   1.931       .  S
C450       Br461   1.932       .  S
C451        C452   1.409       .  A
C451        C456   1.407       .  A
C452        C453   1.410       .  A
C452       Br463   1.930       .  S
C453        C454   1.419       .  A
C453       Br459   1.932       .  S
C454        C455   1.419       .  A
C455        C456   1.405       .  A
C455       Br464   1.923       .  S
C456       Br460   1.936       .  S
C465        C466   1.416       .  A
C465        C470   1.415       .  A
C466        C467   1.404       .  A
C466       Br478   1.934       .  S
C467        C468   1.406       .  A
C467       Br482   1.932       .  S
C468        C469   1.407       .  A
C468        C471   1.479   1_655  S
C469        C470   1.406       .  A
C469       Br477   1.931   1_655  S
C470       Br481   1.932       .  S
C471        C472   1.410       .  A
C471        C476   1.409       .  A
C472        C473   1.405       .  A
C472       Br483   1.930       .  S
C473        C474   1.407       .  A
C473       Br479   1.929       .  S
C474        C475   1.408       .  A
C475        C476   1.404       .  A
C475       Br484   1.929       .  S
C476       Br480   1.930       .  S
C485        C486   1.411       .  A
C485        C490   1.409       .  A
C486        C487   1.408       .  A
C486       Br498   1.930       .  S
C487        C488   1.408       .  A
C487       Br502   1.928       .  S
C488        C489   1.410       .  A
C488        C491   1.483       .  S
C489        C490   1.405       .  A
C489       Br497   1.931       .  S
C490       Br501   1.930       .  S
C491        C492   1.408       .  A
C491        C496   1.409       .  A
C492        C493   1.408       .  A
C492       Br503   1.928       .  S
C493        C494   1.410       .  A
C493       Br499   1.929       .  S
C494        C495   1.410       .  A
C495        C496   1.407       .  A
C495       Br504   1.929       .  S
C496       Br500   1.930       .  S
C505        C506   1.412       .  A
C505        C510   1.413       .  A
C506        C507   1.407       .  A
C506       Br518   1.930       .  S
C507        C508   1.408       .  A
C507       Br522   1.931       .  S
C508        C509   1.408       .  A
C508        C511   1.484       .  S
C509        C510   1.408       .  A
C509       Br517   1.929       .  S
C510       Br521   1.931       .  S
C511        C512   1.408       .  A
C511        C516   1.408       .  A
C512        C513   1.408       .  A
C512       Br523   1.930       .  S
C513        C514   1.413       .  A
C513       Br519   1.930       .  S
C514        C515   1.414       .  A
C515        C516   1.408       .  A
C515       Br524   1.931       .  S
C516       Br520   1.930       .  S
C525        C526   1.414   1_655  A
C525        C530   1.412       .  A
C526        C527   1.409       .  A
C526       Br538   1.929   1_455  S
C527        C528   1.410       .  A
C527       Br542   1.932       .  S
C528        C529   1.408       .  A
C528        C531   1.486       .  S
C529        C530   1.405   1_455  A
C529       Br537   1.932       .  S
C530       Br541   1.924       .  S
C531        C532   1.408       .  A
C531        C536   1.407       .  A
C532        C533   1.408       .  A
C532       Br543   1.931       .  S
C533        C534   1.419       .  A
C533       Br539   1.933       .  S
C534        C535   1.419       .  A
C535        C536   1.406       .  A
C535       Br544   1.931       .  S
C536       Br540   1.933       .  S
C545        C546   1.409       .  A
C545        C550   1.410       .  A
C546        C547   1.410       .  A
C546       Br558   1.927       .  S
C547        C548   1.410       .  A
C547       Br562   1.926       .  S
C548        C549   1.407       .  A
C548        C551   1.482       .  S
C549        C550   1.402       .  A
C549       Br557   1.932       .  S
C550       Br561   1.929       .  S
C551        C552   1.410       .  A
C551        C556   1.408       .  A
C552        C553   1.406       .  A
C552       Br563   1.931       .  S
C553        C554   1.408       .  A
C553       Br559   1.929       .  S
C554        C555   1.410       .  A
C555        C556   1.408       .  A
C555       Br564   1.929       .  S
C556       Br560   1.928       .  S
C565        C566   1.414       .  A
C565        C570   1.418       .  A
C566        C567   1.405       .  A
C566       Br578   1.932       .  S
C567        C568   1.407       .  A
C567       Br582   1.931   1_556  S
C568        C569   1.406       .  A
C568        C571   1.481       .  S
C569        C570   1.408       .  A
C569       Br577   1.931       .  S
C570       Br581   1.931       .  S
C571        C572   1.408       .  A
C571        C576   1.408       .  A
C572        C573   1.404   1_556  A
C572       Br583   1.932       .  S
C573        C574   1.410       .  A
C573       Br579   1.931       .  S
C574        C575   1.411       .  A
C575        C576   1.408   1_554  A
C575       Br584   1.929       .  S
C576       Br580   1.928       .  S
C585        C586   1.417       .  A
C585        C590   1.419       .  A
C586        C587   1.409       .  A
C586       Br598   1.933       .  S
C587        C588   1.409       .  A
C587       Br602   1.931       .  S
C588        C589   1.408       .  A
C588        C591   1.486       .  S
C589        C590   1.404       .  A
C589       Br597   1.934       .  S
C590       Br601   1.936       .  S
C591        C592   1.409       .  A
C591        C596   1.410       .  A
C592        C593   1.408       .  A
C592       Br603   1.930       .  S
C593        C594   1.412       .  A
C593       Br599   1.924       .  S
C594        C595   1.410       .  A
C595        C596   1.404       .  A
C595       Br604   1.923       .  S
C596       Br600   1.933       .  S
C605        C606   1.411       .  A
C605        C610   1.412       .  A
C606        C607   1.404       .  A
C606       Br618   1.932       .  S
C607        C608   1.410       .  A
C607       Br622   1.932       .  S
C608        C609   1.410       .  A
C608        C611   1.483       .  S
C609        C610   1.406       .  A
C609       Br617   1.931       .  S
C610       Br621   1.930       .  S
C611        C612   1.407       .  A
C611        C616   1.406       .  A
C612        C613   1.408       .  A
C612       Br623   1.932       .  S
C613        C614   1.420       .  A
C613       Br619   1.929       .  S
C614        C615   1.415       .  A
C615        C616   1.404       .  A
C615       Br624   1.924       .  S
C616       Br620   1.934       .  S
C625        C626   1.409       .  A
C625        C630   1.408       .  A
C626        C627   1.406       .  A
C626       Br638   1.930       .  S
C627        C628   1.408       .  A
C627       Br642   1.929       .  S
C628        C629   1.409       .  A
C628        C631   1.480       .  S
C629        C630   1.405       .  A
C629       Br637   1.930       .  S
C630       Br641   1.929       .  S
C631        C632   1.409       .  A
C631        C636   1.407       .  A
C632        C633   1.408       .  A
C632       Br643   1.928       .  S
C633        C634   1.409       .  A
C633       Br639   1.928       .  S
C634        C635   1.411       .  A
C635        C636   1.403       .  A
C635       Br644   1.932       .  S
C636       Br640   1.932       .  S
C645        C646   1.412       .  A
C645        C650   1.415       .  A
C646        C647   1.406       .  A
C646       Br658   1.930       .  S
C647        C648   1.407       .  A
C647       Br662   1.930       .  S
C648        C649   1.407       .  A
C648        C651   1.480   1_556  S
C649        C650   1.406       .  A
C649       Br657   1.931       .  S
C650       Br661   1.932       .  S
C651        C652   1.406       .  A
C651        C656   1.407       .  A
C652        C653   1.405       .  A
C652       Br663   1.932       .  S
C653        C654   1.416       .  A
C653       Br659   1.932       .  S
C654        C655   1.414       .  A
C655        C656   1.407       .  A
C655       Br664   1.930       .  S
C656       Br660   1.930   1_554  S
C665        C666   1.415       .  A
C665        C670   1.416       .  A
C666        C667   1.410       .  A
C666       Br678   1.930       .  S
C667        C668   1.408       .  A
C667       Br682   1.929       .  S
C668        C669   1.406       .  A
C668        C671   1.484       .  S
C669        C670   1.405       .  A
C669       Br677   1.932       .  S
C670       Br681   1.933       .  S
C671        C672   1.408       .  A
C671        C676   1.409       .  A
C672        C673   1.407       .  A
C672       Br683   1.930       .  S
C673        C674   1.410       .  A
C673       Br679   1.929       .  S
C674        C675   1.410       .  A
C675        C676   1.408       .  A
C675       Br684   1.929       .  S
C676       Br680   1.929       .  S
C685        C686   1.416       .  A
C685        C690   1.417       .  A
C686        C687   1.407       .  A
C686       Br698   1.924       .  S
C687        C688   1.408       .  A
C687       Br702   1.933       .  S
C688        C689   1.411       .  A
C688        C691   1.490       .  S
C689        C690   1.409       .  A
C689       Br697   1.932       .  S
C690       Br701   1.933       .  S
C691        C692   1.409       .  A
C691        C696   1.412       .  A
C692        C693   1.407       .  A
C692       Br703   1.932       .  S
C693        C694   1.417       .  A
C693       Br699   1.933       .  S
C694        C695   1.414       .  A
C695        C696   1.409       .  A
C695       Br704   1.932       .  S
C696       Br700   1.932       .  S
C705        C706   1.416       .  A
C705        C710   1.412       .  A
C706        C707   1.405       .  A
C706       Br718   1.934       .  S
C707        C708   1.408       .  A
C707       Br722   1.933       .  S
C708        C709   1.409       .  A
C708        C711   1.483       .  S
C709        C710   1.407       .  A
C709       Br717   1.930       .  S
C710       Br721   1.930       .  S
C711        C712   1.409       .  A
C711        C716   1.409       .  A
C712        C713   1.407       .  A
C712       Br723   1.930       .  S
C713        C714   1.412       .  A
C713       Br719   1.931       .  S
C714        C715   1.412       .  A
C715        C716   1.405       .  A
C715       Br724   1.932       .  S
C716       Br720   1.931       .  S
C725        C726   1.408       .  A
C725        C730   1.408       .  A
C726        C727   1.404       .  A
C726       Br738   1.929       .  S
C727        C728   1.408       .  A
C727       Br742   1.929       .  S
C728        C729   1.408       .  A
C728        C731   1.475       .  S
C729        C730   1.403       .  A
C729       Br737   1.929       .  S
C730       Br741   1.930       .  S
C731        C732   1.407       .  A
C731        C736   1.408       .  A
C732        C733   1.404       .  A
C732       Br743   1.932       .  S
C733        C734   1.412       .  A
C733       Br739   1.932       .  S
C734        C735   1.408       .  A
C735        C736   1.405       .  A
C735       Br744   1.929       .  S
C736       Br740   1.929       .  S
