geometry optimzed in LAMMPS
_audit_creation_date              2020-11-30 
_audit_creation_method            'lammps2cif' 
_symmetry_space_group_name_H-M    'P1' 
_symmetry_Int_Tables_number       1 
_symmetry_cell_setting            triclinic 
loop_ 
_symmetry_equiv_pos_as_xyz 
  x,y,z 
_cell_length_a                    46.84317213 
_cell_length_b                    46.67243317524706 
_cell_length_c                    46.633223010604 
_cell_angle_alpha                 89.91940563890996 
_cell_angle_beta                  90.18890966765541 
_cell_angle_gamma                 91.07832213815638 
loop_ 
_atom_site_label 
_atom_site_type_symbol 
_atom_site_fract_x 
_atom_site_fract_y 
_atom_site_fract_z 
_atom_site_charge 
O1          O  0.52757385  0.04133925  0.82848930    -0.86300
O2          O  0.52296732  0.04160016  0.66473660    -0.86500
O3          O  0.58216462  0.03432001  0.74185749    -0.88100
O4          O  0.51829490  0.09964399  0.75232807    -0.86900
O5          O  0.46952473  0.09927512  0.75275273    -0.86500
O6          O  0.58099331  0.98502079  0.74277177    -0.87800
O7          O  0.54637496  0.06821496  0.69919285    -0.86300
O8          O  0.55293624  0.06466349  0.79331310    -0.85900
Zr9        Zr  0.53329700  0.05011821  0.74681278     2.84300
O10         O  0.49273628  0.04971410  0.71748877    -1.07900
O11         O  0.53310774  0.00937342  0.77630262    -1.08600
C12         C  0.54750149  0.05888749  0.81989615     1.06800
C13         C  0.54059090  0.06161696  0.67281482     1.06800
C14         C  0.59387962  0.00958952  0.74017824     1.09700
C15         C  0.49409492  0.11216978  0.75508032     1.07500
H16         H  0.54837761  0.00890165  0.70565663     0.33100
O17         O  0.53203679  0.00889985  0.71818313    -1.28800
H18         H  0.49360340  0.06618176  0.78885058     0.32800
O19         O  0.49318398  0.04967329  0.77644414    -1.30500
O20         O  0.45874441  0.97331369  0.66658918    -0.86300
O21         O  0.45713506  0.97833423  0.82968533    -0.87800
O22         O  0.54773214  0.95051434  0.70192923    -0.86400
O23         O  0.43971894  0.06888396  0.70013314    -0.86400
O24         O  0.43372262  0.06469202  0.79287937    -0.86100
O25         O  0.55164441  0.95370776  0.79305081    -0.85900
O26         O  0.46551433  0.91878651  0.75099885    -0.86300
O27         O  0.40101647  0.98554224  0.74425704    -0.85800
O28         O  0.51452542  0.91877830  0.75011570    -0.86800
O29         O  0.40301085  0.03464974  0.74431408    -0.86000
O30         O  0.52456884  0.97489610  0.66648398    -0.86400
O31         O  0.52745487  0.97686211  0.82849576    -0.86100
O32         O  0.46004594  0.04310998  0.82830301    -0.85800
O33         O  0.46052481  0.04185051  0.66525365    -0.86200
O34         O  0.43458124  0.94851062  0.70163117    -0.86500
O35         O  0.42954592  0.95659311  0.79476717    -0.87800
Zr36       Zr  0.49138712  0.00792611  0.68931367     2.83100
Zr37       Zr  0.49268335  0.00904277  0.80579842     2.83500
Zr38       Zr  0.53151945  0.96838117  0.74766363     2.84100
Zr39       Zr  0.45269095  0.04985007  0.74700322     2.83400
Zr40       Zr  0.44994484  0.96825470  0.74791811     2.84200
O41         O  0.45194842  0.00930915  0.77645255    -1.08400
O42         O  0.49058878  0.96737870  0.71880568    -1.07900
C43         C  0.44085546  0.95366606  0.67507938     1.06800
C44         C  0.43576474  0.96252213  0.82116985     1.09400
C45         C  0.54264752  0.95616014  0.67534131     1.07000
C46         C  0.44450003  0.06240645  0.67365797     1.07300
C47         C  0.44031706  0.06012553  0.81934506     1.06900
C48         C  0.54707648  0.95975383  0.81955838     1.06500
C49         C  0.48980113  0.90608653  0.75134985     1.06900
C50         C  0.38936783  0.01045184  0.74284166     1.06400
H51         H  0.49079290  0.95129624  0.78954988     0.33100
O52         O  0.49100640  0.96795164  0.77716538    -1.29500
H53         H  0.43420437  0.00886189  0.70585294     0.33100
O54         O  0.45075319  0.00874703  0.71812784    -1.30900
C55         C  0.68234620  0.20972092  0.50479174     0.86700
C56         C  0.66980250  0.19014030  0.52868865    -0.53600
C57         C  0.64076413  0.18674408  0.52755399     0.09600
C58         C  0.62674299  0.20285240  0.50272374     0.20600
C59         C  0.67114183  0.19609744  0.47690503    -0.54300
C60         C  0.64221956  0.19150746  0.47601575     0.09700
C61         C  0.66589845  0.23749820  0.50789878    -0.53800
C62         C  0.63700562  0.23412794  0.50676009     0.10300
H63         H  0.68187973  0.17945270  0.54517221     0.14800
H64         H  0.60318030  0.19996321  0.50195250     0.00500
H65         H  0.68526613  0.18970296  0.45975896     0.15100
H66         H  0.67629424  0.25823673  0.51129768     0.14900
O67         O  0.55033740  0.07304853  0.29940544    -0.86300
O68         O  0.44131254  0.95005690  0.29330410    -0.86500
O69         O  0.46374980  0.04222587  0.33334868    -0.88100
O70         O  0.52868881  0.97600648  0.33009350    -0.86900
O71         O  0.55143532  0.95233533  0.29374788    -0.86500
O72         O  0.44122193  0.06935588  0.29936976    -0.87800
O73         O  0.46485168  0.97378916  0.32970720    -0.86300
O74         O  0.52834182  0.04492229  0.33356348    -0.85900
Zr75       Zr  0.49662701  0.01073599  0.30854094     2.84300
O76         O  0.49643641  0.97136964  0.27751218    -1.07900
O77         O  0.49635059  0.05304828  0.28114121    -1.08600
C78         C  0.54477881  0.06610614  0.32568459     1.06800
C79         C  0.44716645  0.95436716  0.32000940     1.06800
C80         C  0.44639668  0.06206050  0.32562340     1.09700
C81         C  0.54574489  0.95688684  0.32037427     1.07500
H82         H  0.43996911  0.01066512  0.29167018     0.33100
O83         O  0.45595429  0.01159891  0.27952912    -1.28800
H84         H  0.55390258  0.01305348  0.29181646     0.32800
O85         O  0.53726366  0.01322554  0.27954855    -1.30500
O86         O  0.43528344  0.96145153  0.20185768    -0.86300
O87         O  0.55723306  0.07092969  0.20624472    -0.87800
O88         O  0.40650330  0.03677484  0.25608291    -0.86400
O89         O  0.52137152  0.92375633  0.24368872    -0.86400
O90         O  0.58631875  0.99071589  0.25211195    -0.86100
O91         O  0.47134934  0.10353763  0.25091689    -0.85900
O92         O  0.46418274  0.05015214  0.16969000    -0.86300
O93         O  0.52787338  0.98377298  0.16715542    -0.85800
O94         O  0.43767817  0.07017479  0.20534660    -0.86800
O95         O  0.55522240  0.96153559  0.20131289    -0.86000
O96         O  0.40644978  0.98752114  0.25447361    -0.86400
O97         O  0.52012729  0.10477625  0.24954254    -0.86100
O98         O  0.58591396  0.03974073  0.25415771    -0.85800
O99         O  0.47229383  0.92342191  0.24191500    -0.86200
O100        O  0.46064513  0.98573725  0.16737233    -0.86500
O101        O  0.53357752  0.04628807  0.17040677    -0.87800
Zr102      Zr  0.45571460  0.97228828  0.24849491     2.83100
Zr103      Zr  0.53675152  0.05541552  0.25196223     2.83500
Zr104      Zr  0.45577581  0.05361650  0.25183171     2.84100
Zr105      Zr  0.53697154  0.97365099  0.24850740     2.83400
Zr106      Zr  0.49614777  0.01606253  0.19207838     2.84200
O107        O  0.53674507  0.01575273  0.22142153    -1.08400
O108        O  0.45532550  0.01418340  0.22102945    -1.07900
C109        C  0.44051538  0.96820975  0.17555828     1.06800
C110        C  0.55315750  0.06387326  0.17972556     1.09400
C111        C  0.39410003  0.01188065  0.25727341     1.07000
C112        C  0.49677331  0.91114436  0.24073623     1.07300
C113        C  0.59879708  0.01554019  0.25448691     1.06900
C114        C  0.49559728  0.11702578  0.24898958     1.06500
C115        C  0.44427261  0.06671814  0.17864382     1.06900
C116        C  0.54809828  0.96709984  0.17515216     1.06400
H117        H  0.49644464  0.07301822  0.21072815     0.33100
O118        O  0.49628447  0.05590744  0.22242709    -1.29500
H119        H  0.49597364  0.95788382  0.20617743     0.33100
O120        O  0.49618532  0.97392860  0.21917086    -1.30900
C121        C  0.30130306  0.82766617  0.99905242     0.86700
C122        C  0.31005214  0.84285332  0.97109459    -0.53600
C123        C  0.30968756  0.87217138  0.97217915     0.09600
C124        C  0.29983660  0.88375091  0.00149075     0.20600
C125        C  0.32095435  0.84096362  0.02227603    -0.54300
C126        C  0.32043734  0.87018022  0.02322722     0.09700
C127        C  0.27212444  0.83974421  0.00682755    -0.53800
C128        C  0.27060510  0.86887190  0.00752779     0.10300
H129        H  0.31798853  0.83117549  0.95274598     0.14800
H130        H  0.29958916  0.90746060  0.00226148     0.00500
H131        H  0.33280712  0.82911415  0.03810611     0.15100
H132        H  0.25397978  0.82590921  0.01208124     0.14900
C133        C  0.69087141  0.83028765  0.00206348     0.86700
C134        C  0.66936393  0.84031817  0.02495801    -0.53600
C135        C  0.66319423  0.86885606  0.02348553     0.09600
C136        C  0.67892309  0.88491418  0.99926127     0.20600
C137        C  0.67731713  0.83958793  0.97350591    -0.54300
C138        C  0.67069087  0.86795522  0.97204369     0.09700
C139        C  0.71669104  0.85054904  0.00648923    -0.53800
C140        C  0.71062490  0.87895415  0.00493805     0.10300
H141        H  0.65984606  0.82695256  0.04140775     0.14800
H142        H  0.67423855  0.90812155  0.99822170     0.00500
H143        H  0.67256066  0.82466409  0.95621508     0.15100
H144        H  0.73808701  0.84302371  0.01083157     0.14900
C145        C  0.67770628  0.81223566  0.49850317     0.86700
C146        C  0.66864781  0.83256462  0.47418133    -0.53600
C147        C  0.64046505  0.84002926  0.47468798     0.09600
C148        C  0.62381037  0.82613825  0.49978212     0.20600
C149        C  0.66875801  0.82715770  0.52631182    -0.54300
C150        C  0.64077903  0.83447538  0.52701102     0.09700
C151        C  0.65650012  0.78669291  0.49621956    -0.53800
C152        C  0.62844952  0.79391010  0.49619416     0.10300
H153        H  0.68339447  0.84014814  0.45780493     0.14800
H154        H  0.60091591  0.83157357  0.50054962     0.00500
H155        H  0.68337668  0.83186878  0.54388365     0.15100
H156        H  0.66217107  0.76441832  0.49651894     0.14900
C157        C  0.29774575  0.19544878  0.99762336     0.86700
C158        C  0.31269971  0.18515680  0.02516665    -0.53600
C159        C  0.32094531  0.15711820  0.02478836     0.09600
C160        C  0.31277244  0.14155553  0.99664812     0.20600
C161        C  0.31833444  0.18786346  0.97307496    -0.54300
C162        C  0.32635991  0.15976175  0.97264216     0.09700
C163        C  0.27272800  0.17382392  0.99383325    -0.53800
C164        C  0.28063525  0.14594340  0.99321635     0.10300
H165        H  0.31670263  0.19918029  0.04335661     0.14800
H166        H  0.31872130  0.11873005  0.99560273     0.00500
H167        H  0.32563585  0.20339172  0.95723201     0.15100
H168        H  0.25040347  0.17893940  0.99208901     0.14900
C169        C  0.68920302  0.19629714  0.99911390     0.86700
C170        C  0.67099019  0.18341486  0.97447892    -0.53600
C171        C  0.67046677  0.15421932  0.97330540     0.09600
C172        C  0.68828885  0.14010600  0.99716099     0.20600
C173        C  0.67658572  0.18185650  0.02602236    -0.54300
C174        C  0.67607339  0.15247975  0.02530677     0.09700
C175        C  0.71848524  0.18302673  0.99530775    -0.53800
C176        C  0.71839737  0.15387824  0.99400027     0.10300
H177        H  0.65845952  0.19548385  0.95940842     0.14800
H178        H  0.68800634  0.11636779  0.99630234     0.00500
H179        H  0.66791978  0.19391096  0.04378126     0.15100
H180        H  0.73790493  0.19594260  0.99305278     0.14900
C181        C  0.31447472  0.21212844  0.49834410     0.86700
C182        C  0.32183038  0.19235746  0.47311384    -0.53600
C183        C  0.34972340  0.18463919  0.47238839     0.09600
C184        C  0.36821007  0.19754163  0.49643703     0.20600
C185        C  0.32489682  0.19615503  0.52521490    -0.54300
C186        C  0.35290843  0.18830206  0.52421549     0.09700
C187        C  0.33592615  0.23758972  0.49540138    -0.53800
C188        C  0.36383986  0.22994357  0.49453746     0.10300
H189        H  0.30629110  0.18489445  0.45734274     0.14800
H190        H  0.39085752  0.19111785  0.49509566     0.00500
H191        H  0.31113148  0.19114443  0.54330608     0.15100
H192        H  0.33064259  0.25996376  0.49404257     0.14900
C193        C  0.30416754  0.81156050  0.49338889     0.86700
C194        C  0.31403317  0.82702350  0.52076381    -0.53600
C195        C  0.34283166  0.83159550  0.52276274     0.09600
C196        C  0.35954509  0.81942360  0.49704678     0.20600
C197        C  0.31705416  0.83009281  0.46896633    -0.54300
C198        C  0.34595533  0.83420662  0.47087272     0.09700
C199        C  0.32105752  0.78403981  0.49237976    -0.53800
C200        C  0.34990486  0.78747774  0.49445051     0.10300
H201        H  0.29924435  0.83405859  0.53706867     0.14800
H202        H  0.38299534  0.82287772  0.49865185     0.00500
H203        H  0.30514514  0.83987172  0.45175793     0.15100
H204        H  0.31069515  0.76321402  0.48941431     0.14900
O205        O  0.90073775  0.76300850  0.46995811    -0.86300
O206        O  0.01640547  0.74745209  0.58347709    -0.86500
O207        O  0.93263739  0.70718902  0.54816336    -0.88100
O208        O  0.93509427  0.79992369  0.55586664    -0.86900
O209        O  0.95884920  0.83585975  0.53166746    -0.86500
O210        O  0.95718938  0.67371210  0.52287385    -0.87800
O211        O  0.96751394  0.74821914  0.58436300    -0.86300
O212        O  0.90098262  0.75941725  0.51897691    -0.85900
Zr213      Zr  0.95037083  0.75483879  0.53508768     2.84300
O214        O  0.99159237  0.78401705  0.53637543    -1.07900
O215        O  0.94887096  0.72801862  0.49263206    -1.08600
C216        C  0.88829053  0.76310156  0.49458946     1.06800
C217        C  0.99215265  0.74515931  0.59658303     1.06800
C218        C  0.93845205  0.68102350  0.54163529     1.09700
C219        C  0.94098999  0.82662825  0.55085926     1.07500
H220        H  0.99065659  0.71263336  0.54885510     0.33100
O221        O  0.99052877  0.72594401  0.53295374    -1.28800
H222        H  0.93440345  0.79825141  0.49633524     0.32800
O223        O  0.95066615  0.78592601  0.49560240    -1.30500
O224        O  0.08053967  0.75890674  0.51614476    -0.86300
O225        O  0.96427655  0.75732966  0.40316769    -0.87800
O226        O  0.02186206  0.67361283  0.52192628    -0.86400
O227        O  0.02526802  0.83644815  0.53087810    -0.86400
O228        O  0.95934651  0.84056788  0.46549252    -0.86100
O229        O  0.95522993  0.67828813  0.45756091    -0.85900
O230        O  0.04930226  0.71488237  0.43560127    -0.86300
O231        O  0.04487724  0.80854567  0.43506910    -0.85800
O232        O  0.02447475  0.67876312  0.45865232    -0.86800
O233        O  0.02226482  0.84161761  0.46279561    -0.86000
O234        O  0.04955474  0.70743500  0.54528323    -0.86400
O235        O  0.92949279  0.71361587  0.43580561    -0.86100
O236        O  0.93700753  0.80692899  0.43680995    -0.85800
O237        O  0.04671670  0.79981680  0.55538787    -0.86200
O238        O  0.08008464  0.76201249  0.46695529    -0.86500
O239        O  0.01337402  0.75783978  0.40240379    -0.87800
Zr240      Zr  0.03165831  0.75487062  0.53376055     2.83100
Zr241      Zr  0.94946340  0.75915765  0.45314159     2.83500
Zr242      Zr  0.98956090  0.69964726  0.49065678     2.84100
Zr243      Zr  0.99159952  0.81514066  0.49679716     2.83400
Zr244      Zr  0.03047952  0.76035172  0.45177413     2.84200
O245        O  0.99022871  0.78889624  0.45392987    -1.08400
O246        O  0.03059889  0.72894441  0.49109210    -1.07900
C247        C  0.09287951  0.76160785  0.49149051     1.06800
C248        C  0.98857410  0.75627524  0.39028605     1.09400
C249        C  0.04220384  0.68133122  0.53916440     1.07000
C250        C  0.04196158  0.82648201  0.55043393     1.07300
C251        C  0.94269568  0.83295398  0.44468794     1.06900
C252        C  0.93542503  0.68708969  0.44054756     1.06500
C253        C  0.04408740  0.68824365  0.44145754     1.06900
C254        C  0.03918402  0.83469716  0.44210379     1.06400
H255        H  0.98937969  0.71877729  0.43410563     0.33100
O256        O  0.98971336  0.73035820  0.45107268    -1.29500
H257        H  0.04863654  0.79897262  0.49502780     0.33100
O258        O  0.03188791  0.78661986  0.49457980    -1.30900
O259        O  0.90874079  0.25242157  0.47696779    -0.86300
O260        O  0.02379749  0.26196511  0.59082282    -0.86500
O261        O  0.94311710  0.20921398  0.56072162    -0.88100
O262        O  0.94105591  0.30359976  0.55748129    -0.86900
O263        O  0.96655966  0.33858085  0.53357815    -0.86500
O264        O  0.96624939  0.17544602  0.53455635    -0.87800
O265        O  0.97481728  0.26064649  0.59135563    -0.86300
O266        O  0.90865106  0.25249050  0.52614938    -0.85900
Zr267      Zr  0.95807151  0.25665474  0.54219179     2.84300
O268        O  0.99896299  0.28644252  0.54171421    -1.07900
O269        O  0.95750828  0.22776347  0.50120342    -1.08600
C270        C  0.89607394  0.25070351  0.50149568     1.06800
C271        C  0.99945773  0.26279280  0.60369737     1.06800
C272        C  0.94883127  0.18284542  0.55448013     1.09700
C273        C  0.94737179  0.33011259  0.55166132     1.07500
H274        H  0.99911415  0.21699298  0.55939139     0.33100
O275        O  0.99894799  0.22866487  0.54227786    -1.28800
H276        H  0.94101044  0.29726101  0.50134359     0.32800
O277        O  0.95794355  0.28588326  0.50131240    -1.30500
O278        O  0.08890864  0.25434005  0.52451017    -0.86300
O279        O  0.97396976  0.26311632  0.41091437    -0.87800
O280        O  0.03172056  0.17731294  0.53433733    -0.86400
O281        O  0.03243324  0.34006605  0.53370088    -0.86400
O282        O  0.96528119  0.33860880  0.46800723    -0.86100
O283        O  0.96646942  0.17558676  0.46708929    -0.85900
O284        O  0.05273684  0.21098161  0.44190408    -0.86300
O285        O  0.05746775  0.30478405  0.44455059    -0.85800
O286        O  0.02973979  0.17583376  0.46793312    -0.86800
O287        O  0.03222593  0.33922231  0.46793813    -0.86000
O288        O  0.05489700  0.21245899  0.55999850    -0.86400
O289        O  0.94397836  0.21035307  0.44109760    -0.86100
O290        O  0.93950841  0.30319264  0.44535118    -0.85800
O291        O  0.05813506  0.30543892  0.55660945    -0.86200
O292        O  0.08838820  0.25435234  0.47536731    -0.86500
O293        O  0.02276056  0.26318612  0.41036862    -0.87800
Zr294      Zr  0.03978766  0.25842424  0.54145757     2.83100
Zr295      Zr  0.95786218  0.25707091  0.46037835     2.83500
Zr296      Zr  0.99838046  0.19979227  0.50120317     2.84100
Zr297      Zr  0.99902329  0.31554733  0.50084411     2.83400
Zr298      Zr  0.03907203  0.25802819  0.45980209     2.84200
O299        O  0.99862472  0.28660543  0.46004077    -1.08400
O300        O  0.03934925  0.22916852  0.50080558    -1.07900
C301        C  0.10130964  0.25303069  0.49979797     1.06800
C302        C  0.99824778  0.26524883  0.39784333     1.09400
C303        C  0.04954913  0.18594805  0.55389012     1.07000
C304        C  0.05239408  0.33186986  0.55097279     1.07300
C305        C  0.94548821  0.32982128  0.45042809     1.06900
C306        C  0.94976934  0.18397178  0.44672525     1.06500
C307        C  0.04679690  0.18443715  0.44789523     1.06900
C308        C  0.05164903  0.33113921  0.45024936     1.06400
H309        H  0.99818999  0.21712318  0.44273904     0.33100
O310        O  0.99829295  0.22860366  0.45989475    -1.29500
H311        H  0.05707748  0.29913472  0.50050055     0.33100
O312        O  0.03999576  0.28731293  0.50055610    -1.30900
C313        C  0.79730125  0.50240269  0.68142689     0.86700
C314        C  0.81640305  0.47770698  0.67125708    -0.53600
C315        C  0.82248781  0.47849554  0.64254570     0.09600
C316        C  0.80886315  0.50370035  0.62662212     0.20600
C317        C  0.81361130  0.52956554  0.67167275    -0.54300
C318        C  0.81926928  0.53025538  0.64310697     0.09700
C319        C  0.77100792  0.50019283  0.66188384    -0.53800
C320        C  0.77686273  0.50092846  0.63330676     0.10300
H321        H  0.82495921  0.46112787  0.68482022     0.14800
H322        H  0.81398019  0.50484451  0.60341788     0.00500
H323        H  0.82055135  0.54652855  0.68617601     0.15100
H324        H  0.74934902  0.49926721  0.67013836     0.14900
C325        C  0.18835129  0.51810024  0.68512268     0.86700
C326        C  0.16804995  0.54063601  0.67270021    -0.53600
C327        C  0.16628359  0.54034650  0.64339819     0.09600
C328        C  0.18500437  0.51757711  0.62900526     0.20600
C329        C  0.17706215  0.48965992  0.67241877    -0.54300
C330        C  0.17519304  0.48889784  0.64304255     0.09700
C331        C  0.21648172  0.52469331  0.66987022    -0.53800
C332        C  0.21540040  0.52367415  0.64073743     0.10300
H333        H  0.15607873  0.55577343  0.68518530     0.14800
H334        H  0.18403113  0.51773348  0.60526665     0.00500
H335        H  0.16919693  0.47252624  0.68615220     0.15100
H336        H  0.23619559  0.52926793  0.68149311     0.14900
C337        C  0.81015669  0.00925905  0.30193974     0.86700
C338        C  0.82046587  0.98462752  0.32147154    -0.53600
C339        C  0.84937341  0.98417057  0.32525439     0.09600
C340        C  0.86540272  0.00877688  0.31022256     0.20600
C341        C  0.82230159  0.03631721  0.31641753    -0.54300
C342        C  0.85104263  0.03594927  0.32139254     0.09700
C343        C  0.82768638  0.00610038  0.27440958    -0.53800
C344        C  0.85654269  0.00566730  0.27860472     0.10300
H345        H  0.80693191  0.96906452  0.33218133     0.14800
H346        H  0.88883854  0.00843158  0.31375116     0.00500
H347        H  0.80897574  0.05386943  0.32309710     0.15100
H348        H  0.81791789  0.00463297  0.25330339     0.14900
C349        C  0.80332661  0.00397673  0.68862656     0.86700
C350        C  0.81728338  0.02924013  0.67203603    -0.53600
C351        C  0.84625295  0.02769338  0.66943537     0.09600
C352        C  0.85901604  0.00127891  0.68425068     0.20600
C353        C  0.81373028  0.97743381  0.67242737    -0.54300
C354        C  0.84272011  0.97586047  0.67051614     0.09700
C355        C  0.81911772  0.00364313  0.71735227    -0.53800
C356        C  0.84804710  0.00228128  0.71534966     0.10300
H357        H  0.80592432  0.04648962  0.66190816     0.14800
H358        H  0.88259037  0.99998962  0.68235386     0.00500
H359        H  0.79944284  0.96161984  0.66268177     0.15100
H360        H  0.80813241  0.00394904  0.73784297     0.14900
C361        C  0.80451381  0.50067441  0.30503669     0.86700
C362        C  0.82069316  0.52652130  0.31786138    -0.53600
C363        C  0.82267936  0.52635838  0.34708424     0.09600
C364        C  0.80865658  0.49968963  0.36111748     0.20600
C365        C  0.82119253  0.47484700  0.31707948    -0.54300
C366        C  0.82357078  0.47463766  0.34641431     0.09700
C367        C  0.77583705  0.49939490  0.32060018    -0.53800
C368        C  0.77778380  0.49877060  0.34965893     0.10300
H369        H  0.83031242  0.54336611  0.30478822     0.14800
H370        H  0.81043132  0.49913550  0.38485508     0.00500
H371        H  0.83190367  0.45909636  0.30417683     0.15100
H372        H  0.75543148  0.49884146  0.30942583     0.14900
C373        C  0.19732553  0.51405327  0.31851794     0.86700
C374        C  0.17944119  0.48702870  0.32553023    -0.53600
C375        C  0.17114005  0.48493694  0.35350599     0.09600
C376        C  0.18153523  0.51014911  0.37222649     0.20600
C377        C  0.17950534  0.53938449  0.32905904    -0.54300
C378        C  0.17070462  0.53708333  0.35691822     0.09700
C379        C  0.22229700  0.51348185  0.34015196    -0.53800
C380        C  0.21394561  0.51117658  0.36802753     0.10300
H381        H  0.17460598  0.47054497  0.30974516     0.14800
H382        H  0.17509365  0.50855295  0.39508185     0.00500
H383        H  0.17426020  0.55760824  0.31567503     0.15100
H384        H  0.24473390  0.51481326  0.33471675     0.14900
C385        C  0.18156561  0.01342868  0.30027062     0.86700
C386        C  0.17105999  0.03887088  0.31834610    -0.53600
C387        C  0.14220433  0.03931091  0.32211656     0.09600
C388        C  0.12605375  0.01469434  0.30709241     0.20600
C389        C  0.16877270  0.98710614  0.31610516    -0.54300
C390        C  0.13965788  0.98749191  0.31972060     0.09700
C391        C  0.16472180  0.01545832  0.27227237    -0.53800
C392        C  0.13595464  0.01650191  0.27569651     0.10300
H393        H  0.18465234  0.05488915  0.32840699     0.14800
H394        H  0.10261131  0.01583230  0.30988647     0.00500
H395        H  0.18185562  0.97012536  0.32464706     0.15100
H396        H  0.17483249  0.01726044  0.25138509     0.14900
C397        C  0.17860872  0.00359577  0.69330754     0.86700
C398        C  0.16690445  0.97787141  0.67576364    -0.53600
C399        C  0.13816040  0.97879518  0.67023262     0.09600
C400        C  0.12384171  0.00537567  0.68282379     0.20600
C401        C  0.16971823  0.02978419  0.67596375    -0.54300
C402        C  0.14130315  0.03078637  0.67053606     0.09700
C403        C  0.15975855  0.00340828  0.72013710    -0.53800
C404        C  0.13103969  0.00472803  0.71507767     0.10300
H405        H  0.17953034  0.96028564  0.66821606     0.14800
H406        H  0.10079526  0.00593991  0.67824544     0.00500
H407        H  0.18471808  0.04610903  0.66834573     0.15100
H408        H  0.16882479  0.00305108  0.74158582     0.14900
O409        O  0.73818134  0.60464920  0.96924199    -0.86300
O410        O  0.74390671  0.48840551  0.08316795    -0.86500
O411        O  0.69534875  0.56918455  0.05331533    -0.88100
O412        O  0.78862426  0.57103519  0.04955313    -0.86900
O413        O  0.82214977  0.54416382  0.02680713    -0.86500
O414        O  0.65973608  0.54545590  0.02833743    -0.87800
O415        O  0.74810976  0.53754198  0.08317005    -0.86300
O416        O  0.73847405  0.60445930  0.01834884    -0.85900
Zr417      Zr  0.74135302  0.55453381  0.03424450     2.84300
O418        O  0.76849476  0.51304052  0.03357718    -1.07900
O419        O  0.71235605  0.55512663  0.99345689    -1.08600
C420        C  0.73686306  0.61736497  0.99381484     1.06800
C421        C  0.74849806  0.51277849  0.09554614     1.06800
C422        C  0.66883960  0.56300246  0.04791310     1.09700
C423        C  0.81463763  0.56382976  0.04458557     1.07500
H424        H  0.69969164  0.51376991  0.05162205     0.33100
O425        O  0.71110159  0.51396929  0.03445832    -1.28800
H426        H  0.78286451  0.57125375  0.99390624     0.32800
O427        O  0.77066312  0.55440190  0.99371876    -1.30500
O428        O  0.73242722  0.42330784  0.01779365    -0.86300
O429        O  0.74403627  0.53861004  0.90360722    -0.87800
O430        O  0.65790151  0.48085201  0.02539797    -0.86400
O431        O  0.81963568  0.47909990  0.02716473    -0.86400
O432        O  0.82227537  0.54596460  0.96081223    -0.86100
O433        O  0.66034569  0.54891883  0.96065553    -0.85900
O434        O  0.69128934  0.45837909  0.93392161    -0.86300
O435        O  0.78436630  0.45380613  0.93697188    -0.85800
O436        O  0.65751009  0.48301728  0.95890367    -0.86800
O437        O  0.81989835  0.47875337  0.96044494    -0.86000
O438        O  0.69195179  0.45780156  0.05165125    -0.86400
O439        O  0.69607810  0.57163957  0.93542839    -0.86100
O440        O  0.78859911  0.57341288  0.93854929    -0.85800
O441        O  0.78381585  0.45450085  0.05055392    -0.86200
O442        O  0.73169871  0.42309817  0.96851033    -0.86500
O443        O  0.74202565  0.48945498  0.90318211    -0.87800
Zr444      Zr  0.73848400  0.47265951  0.03374034     2.83100
Zr445      Zr  0.74164028  0.55496944  0.95301141     2.83500
Zr446      Zr  0.68224812  0.51451731  0.99316478     2.84100
Zr447      Zr  0.79766240  0.51235797  0.99317957     2.83400
Zr448      Zr  0.73840435  0.47263736  0.95230320     2.84200
O449        O  0.76870198  0.51323890  0.95234024    -1.08400
O450        O  0.70944737  0.47306746  0.99296823    -1.07900
C451        C  0.72987968  0.41074468  0.99327928     1.06800
C452        C  0.74436794  0.51412613  0.89077427     1.09400
C453        C  0.66580905  0.46302075  0.04500779     1.07000
C454        C  0.81036868  0.46030239  0.04555611     1.07300
C455        C  0.81468737  0.56640005  0.94377892     1.06900
C456        C  0.66956000  0.56668388  0.94131098     1.06500
C457        C  0.66517434  0.46498558  0.93946835     1.06900
C458        C  0.81098832  0.45929922  0.94269250     1.06400
H459        H  0.69971746  0.51485474  0.93521780     0.33100
O460        O  0.71134011  0.51439548  0.95230418    -1.29500
H461        H  0.77851582  0.45424452  0.99326958     0.33100
O462        O  0.76757887  0.47149810  0.99311165    -1.30900
O463        O  0.25053990  0.60133603  0.97583155    -0.86300
O464        O  0.23617911  0.48742067  0.09168185    -0.86500
O465        O  0.19964807  0.57465398  0.05645728    -0.88100
O466        O  0.29221133  0.56541219  0.06118917    -0.86900
O467        O  0.32476047  0.53992391  0.03585332    -0.86500
O468        O  0.16335046  0.54973286  0.03395804    -0.87800
O469        O  0.24037263  0.53654447  0.09202181    -0.86300
O470        O  0.25231897  0.60249653  0.02497980    -0.85900
Zr471      Zr  0.24446226  0.55315802  0.04243359     2.84300
O472        O  0.27007668  0.51063531  0.04266305    -1.07900
O473        O  0.21504082  0.55388211  0.00167958    -1.08600
C474        C  0.25435208  0.61447201  0.99992498     1.06800
C475        C  0.23686478  0.51195693  0.10453123     1.06800
C476        C  0.17297396  0.56968573  0.05090868     1.09700
C477        C  0.31811400  0.55802690  0.05546834     1.07500
H478        H  0.20055722  0.51361281  0.05934847     0.33100
O479        O  0.21285936  0.51314303  0.04287265    -1.28800
H480        H  0.28617991  0.56764765  0.00092769     0.32800
O481        O  0.27274909  0.55173768  0.00123051    -1.30500
O482        O  0.24359960  0.42085447  0.02593178    -0.86300
O483        O  0.23776071  0.53601603  0.91093749    -0.87800
O484        O  0.15839586  0.47969781  0.03306192    -0.86400
O485        O  0.31977568  0.47635267  0.03565532    -0.86400
O486        O  0.32398594  0.54173160  0.96854323    -0.86100
O487        O  0.16177948  0.54813415  0.96959882    -0.85900
O488        O  0.19212319  0.45424977  0.94592373    -0.86300
O489        O  0.28601844  0.45548849  0.94215745    -0.85800
O490        O  0.15925570  0.48186643  0.96889257    -0.86800
O491        O  0.32132559  0.47746255  0.96875322    -0.86000
O492        O  0.19166169  0.45126175  0.05456373    -0.86400
O493        O  0.19760942  0.57206931  0.94573906    -0.86100
O494        O  0.29000795  0.56326024  0.94065049    -0.85800
O495        O  0.28380229  0.45540927  0.06229299    -0.86200
O496        O  0.24338298  0.42036500  0.97680377    -0.86500
O497        O  0.23654791  0.48692719  0.91121103    -0.87800
Zr498      Zr  0.23889695  0.47063632  0.04229264     2.83100
Zr499      Zr  0.24320951  0.55199184  0.96047632     2.83500
Zr500      Zr  0.18400619  0.51393092  0.00211097     2.84100
Zr501      Zr  0.29882273  0.50983521  0.00184352     2.83400
Zr502      Zr  0.23968885  0.47030727  0.96080934     2.84200
O503        O  0.27030397  0.51041040  0.96048483    -1.08400
O504        O  0.21022097  0.47149710  0.00139973    -1.07900
C505        C  0.24550056  0.40781096  0.00151096     1.06800
C506        C  0.23515962  0.51142874  0.89835425     1.09400
C507        C  0.16564462  0.45829319  0.04901678     1.07000
C508        C  0.31024511  0.45994392  0.05593195     1.07300
C509        C  0.31605475  0.55798601  0.94765515     1.06900
C510        C  0.17097547  0.56712611  0.95143898     1.06500
C511        C  0.16631130  0.46215686  0.95099264     1.06900
C512        C  0.31255622  0.46067908  0.94852171     1.06400
H513        H  0.20008509  0.51254976  0.94453885     0.33100
O514        O  0.21250597  0.51210357  0.96115250    -1.29500
H515        H  0.28020014  0.45321366  0.00197880     0.33100
O516        O  0.26836167  0.46985483  0.00185963    -1.30900
C517        C  0.99608817  0.71185891  0.81291612     0.86700
C518        C  0.02106879  0.69342994  0.82356612    -0.53600
C519        C  0.02195642  0.68917623  0.85277152     0.09600
C520        C  0.99735258  0.70381964  0.86856383     0.20600
C521        C  0.96915894  0.69721821  0.82515961    -0.54300
C522        C  0.96984079  0.69214183  0.85406731     0.09700
C523        C  0.99930499  0.73954873  0.83056387    -0.53800
C524        C  0.00003731  0.73540328  0.85931982     0.10300
H525        H  0.03686258  0.68491008  0.80906551     0.14800
H526        H  0.99749171  0.70036509  0.89193226     0.00500
H527        H  0.95130051  0.69056558  0.81166889     0.15100
H528        H  0.00150388  0.76106028  0.82223535     0.14900
C529        C  0.99212815  0.31528938  0.81408525     0.86700
C530        C  0.96413049  0.33109960  0.81988408    -0.53600
C531        C  0.96096069  0.33927344  0.84774329     0.09600
C532        C  0.98555224  0.33067447  0.86757677     0.20600
C533        C  0.01592875  0.33535398  0.82564827    -0.54300
C534        C  0.01259608  0.34366013  0.85364177     0.09700
C535        C  0.99144904  0.29023504  0.83568672    -0.53800
C536        C  0.98835906  0.29830463  0.86339271     0.10300
H537        H  0.94855463  0.33596615  0.80336627     0.14800
H538        H  0.98170004  0.33719047  0.89001526     0.00500
H539        H  0.03411092  0.34196398  0.81269037     0.15100
H540        H  0.99411560  0.26783069  0.83091878     0.14900
C541        C  0.48768755  0.69334085  0.79538535     0.86700
C542        C  0.46165154  0.68260745  0.81261002    -0.53600
C543        C  0.46332703  0.65482986  0.82162780     0.09600
C544        C  0.49076647  0.64002143  0.81230895     0.20600
C545        C  0.51370035  0.68719504  0.81452205    -0.54300
C546        C  0.51529370  0.65938495  0.82356309     0.09700
C547        C  0.48971519  0.67134595  0.77082316    -0.53800
C548        C  0.49158244  0.64367673  0.77977305     0.10300
H549        H  0.44371540  0.69604902  0.81770359     0.14800
H550        H  0.49191337  0.61729720  0.81922475     0.00500
H551        H  0.52990192  0.70337273  0.81951918     0.15100
H552        H  0.48959928  0.67614644  0.74814546     0.14900
C553        C  0.49760205  0.70007251  0.19103116     0.86700
C554        C  0.52370945  0.68798848  0.17498716    -0.53600
C555        C  0.52401358  0.65872536  0.17390205     0.09600
C556        C  0.49857868  0.64400106  0.18887073     0.20600
C557        C  0.47202299  0.68625729  0.17514618    -0.54300
C558        C  0.47226921  0.65697561  0.17424855     0.09700
C559        C  0.49841020  0.68537745  0.22041715    -0.53800
C560        C  0.49907945  0.65625107  0.21949077     0.10300
H561        H  0.53978280  0.70058848  0.16381307     0.14800
H562        H  0.49914452  0.62023782  0.18790027     0.00500
H563        H  0.45543421  0.69862325  0.16488388     0.15100
H564        H  0.49978986  0.69726171  0.24041572     0.14900
C565        C  0.98441419  0.31774115  0.18520006     0.86700
C566        C  0.01172719  0.33061336  0.17198428    -0.53600
C567        C  0.01003056  0.33642073  0.14321398     0.09600
C568        C  0.98112009  0.32710811  0.12978879     0.20600
C569        C  0.96041522  0.33835050  0.17632468    -0.54300
C570        C  0.95888196  0.34324610  0.14736203     0.09700
C571        C  0.97756179  0.29091341  0.16708207    -0.53800
C572        C  0.97593698  0.29557415  0.13833598     0.10300
H573        H  0.03064043  0.33544134  0.18473313     0.14800
H574        H  0.97951759  0.33110173  0.10635714     0.00500
H575        H  0.94494230  0.34698065  0.19107593     0.15100
H576        H  0.97335557  0.26980871  0.17606267     0.14900
C577        C  0.99072911  0.71170654  0.17759831     0.86700
C578        C  0.96655163  0.69252889  0.16488972    -0.53600
C579        C  0.96887146  0.68719777  0.13611973     0.09600
C580        C  0.99515967  0.70194558  0.12247311     0.20600
C581        C  0.01812544  0.69624459  0.16899934    -0.54300
C582        C  0.02043142  0.69111035  0.14026840     0.09700
C583        C  0.99012124  0.73873208  0.15900078    -0.53800
C584        C  0.99252499  0.73372328  0.13041736     0.10300
H585        H  0.94887239  0.68350828  0.17683605     0.14800
H586        H  0.99771040  0.69791688  0.09922473     0.00500
H587        H  0.03413213  0.68957305  0.18440198     0.15100
H588        H  0.98750335  0.76011581  0.16768051     0.14900
C589        C  0.48393202  0.32533862  0.80124031     0.86700
C590        C  0.51025116  0.33682210  0.81738127    -0.53600
C591        C  0.51059718  0.36573525  0.82168516     0.09600
C592        C  0.48446644  0.38102062  0.80907225     0.20600
C593        C  0.45815305  0.33638893  0.81828768    -0.54300
C594        C  0.45870657  0.36538000  0.82304609     0.09700
C595        C  0.48267252  0.34306704  0.77349391    -0.53800
C596        C  0.48282646  0.37195489  0.77731604     0.10300
H597        H  0.52704775  0.32308422  0.82522518     0.14800
H598        H  0.48505855  0.40454682  0.81253942     0.00500
H599        H  0.44053975  0.32287165  0.82552465     0.15100
H600        H  0.47957877  0.33377523  0.75235909     0.14900
C601        C  0.49092083  0.32769334  0.19325512     0.86700
C602        C  0.46424630  0.33787471  0.17730056    -0.53600
C603        C  0.46459209  0.36648630  0.17083471     0.09600
C604        C  0.49153203  0.38249242  0.18169325     0.20600
C605        C  0.51618264  0.33775008  0.17426034    -0.54300
C606        C  0.51625498  0.36630951  0.16815341     0.09700
C607        C  0.49368830  0.34714255  0.21973990    -0.53800
C608        C  0.49328548  0.37577627  0.21383840     0.10300
H609        H  0.44698521  0.32335681  0.17092777     0.14800
H610        H  0.49224392  0.40579930  0.17723099     0.00500
H611        H  0.53330364  0.32438541  0.16688964     0.15100
H612        H  0.49549075  0.33893075  0.24145232     0.14900
O613        O  0.54748371  0.44451645  0.53595090    -0.86300
O614        O  0.47284479  0.50371864  0.40535786    -0.86500
O615        O  0.49071376  0.42323688  0.46216254    -0.88100
O616        O  0.56679897  0.47622414  0.44335704    -0.86900
O617        O  0.57930165  0.52312902  0.45174296    -0.86500
O618        O  0.45234924  0.42890329  0.49210231    -0.87800
O619        O  0.50709306  0.46982092  0.41296897    -0.86300
O620        O  0.54500102  0.43197139  0.48831559    -0.85900
Zr621      Zr  0.51848766  0.46825103  0.46370467     2.84300
O622        O  0.51490870  0.51587303  0.44973503    -1.07900
O623        O  0.50083299  0.46343558  0.51052041    -1.08600
C624        C  0.55132073  0.42709095  0.51469792     1.06800
C625        C  0.48983287  0.48391397  0.39690009     1.06800
C626        C  0.46764280  0.41419283  0.47469592     1.09700
C627        C  0.58454755  0.49792676  0.44225920     1.07500
H628        H  0.45919006  0.47008389  0.45165029     0.33100
O629        O  0.47041560  0.48195749  0.46453209    -1.28800
H630        H  0.56454788  0.49011953  0.49548171     0.32800
O631        O  0.54512116  0.49685589  0.49535257    -1.30500
O632        O  0.44411522  0.57751899  0.45574812    -0.86300
O633        O  0.52200298  0.52118551  0.58612622    -0.87800
O634        O  0.40961482  0.48079804  0.48329595    -0.86400
O635        O  0.53995044  0.56516945  0.43100464    -0.86400
O636        O  0.58552961  0.54055812  0.51026066    -0.86100
O637        O  0.45802187  0.45274487  0.55930319    -0.85900
O638        O  0.42885836  0.54594042  0.54850194    -0.86300
O639        O  0.50439658  0.59945777  0.52693440    -0.85800
O640        O  0.41676210  0.49930951  0.53891496    -0.86800
O641        O  0.54254338  0.59398015  0.49653753    -0.86000
O642        O  0.41826292  0.51273583  0.44663188    -0.86400
O643        O  0.50338310  0.46225144  0.57594791    -0.86100
O644        O  0.57678193  0.50732218  0.54579271    -0.85800
O645        O  0.49408811  0.55702302  0.41507921    -0.86200
O646        O  0.44883620  0.58975593  0.50321425    -0.86500
O647        O  0.49042597  0.55681860  0.57671373    -0.87800
Zr648      Zr  0.46730153  0.53018301  0.45025219     2.83100
Zr649      Zr  0.52717398  0.49273543  0.54187598     2.83500
Zr650      Zr  0.45339250  0.47707554  0.51172257     2.84100
Zr651      Zr  0.54265246  0.54463132  0.48008698     2.83400
Zr652      Zr  0.47679028  0.55433376  0.52708176     2.84200
O653        O  0.52486709  0.54073400  0.52702595    -1.08400
O654        O  0.44983095  0.52485964  0.49668848    -1.07900
C655        C  0.44101972  0.59487391  0.47729283     1.06800
C656        C  0.50691268  0.54293330  0.59368380     1.09400
C657        C  0.40197105  0.49540924  0.46105037     1.07000
C658        C  0.52002449  0.56590010  0.41157348     1.07300
C659        C  0.59316362  0.52463534  0.53159435     1.06900
C660        C  0.47831414  0.45090581  0.57837556     1.06500
C661        C  0.41151110  0.52389761  0.54972038     1.06900
C662        C  0.52653244  0.60888492  0.51309236     1.06400
H663        H  0.47175499  0.50576108  0.56158252     0.33100
O664        O  0.47960916  0.50693569  0.54250226    -1.29500
H665        H  0.49479851  0.57862871  0.47378800     0.33100
O666        O  0.49515347  0.55910898  0.48053954    -1.30900
O667        O  0.05824775  0.96029649  0.03878529    -0.86300
O668        O  0.00882932  0.04362547  0.90844201    -0.86500
O669        O  0.03392092  0.94873992  0.94646348    -0.88100
O670        O  0.08480106  0.02466838  0.97018646    -0.86900
O671        O  0.07657952  0.06379012  0.99868071    -0.86500
O672        O  0.98658316  0.93600078  0.95099895    -0.87800
O673        O  0.04537719  0.01284057  0.91814483    -0.86300
O674        O  0.07277324  0.96691313  0.99240918    -0.85900
Zr675      Zr  0.04012225  0.99709059  0.96717754     2.84300
O676        O  0.02576959  0.04493641  0.96806503    -1.07900
O677        O  0.00937282  0.96946043  0.99524082    -1.08600
C678        C  0.07630566  0.95721094  0.01798960     1.06800
C679        C  0.03127010  0.02954125  0.90155630     1.06800
C680        C  0.01250559  0.93089017  0.94403276     1.09700
C681        C  0.09260504  0.04819208  0.98277134     1.07500
H682        H  0.99358939  0.99271965  0.92964630     0.33100
O683        O  0.99372351  0.99992025  0.94899635    -1.28800
H684        H  0.06184292  0.01375160  0.02173871     0.32800
O685        O  0.04260100  0.01441367  0.01425491    -1.30500
O686        O  0.93226696  0.07094556  0.95476875    -0.86300
O687        O  0.98378011  0.99109689  0.08584648    -0.87800
O688        O  0.94083827  0.97815072  0.92858512    -0.86400
O689        O  0.02650119  0.10543666  0.98546746    -0.86400
O690        O  0.04917791  0.05643908  0.06311042    -0.86100
O691        O  0.96607637  0.92808157  0.00563288    -0.85900
O692        O  0.90601933  0.00652483  0.02427661    -0.86300
O693        O  0.95717444  0.08350300  0.04941126    -0.85800
O694        O  0.91368314  0.96956782  0.99306978    -0.86800
O695        O  0.00429348  0.09705069  0.04441507    -0.86000
O696        O  0.94889251  0.02488667  0.91575199    -0.86400
O697        O  0.99576392  0.93655407  0.04428637    -0.86100
O698        O  0.04148537  0.00986808  0.07776544    -0.85800
O699        O  0.99680835  0.09618075  0.94730658    -0.86200
O700        O  0.91556972  0.06314775  0.00048104    -0.86500
O701        O  0.94762065  0.02231382  0.07670438    -0.87800
Zr702      Zr  0.97884877  0.04752063  0.95108148     2.83100
Zr703      Zr  0.01230059  0.98578469  0.04234544     2.83500
Zr704      Zr  0.96273623  0.97232634  0.97728512     2.84100
Zr705      Zr  0.02738616  0.06185006  0.01522551     2.83400
Zr706      Zr  0.95029305  0.03593948  0.02668434     2.84200
O707        O  0.99719741  0.03324362  0.04353147    -1.08400
O708        O  0.94812136  0.01963629  0.97930085    -1.07900
C709        C  0.91321116  0.07276575  0.97473326     1.06800
C710        C  0.96201146  0.00591350  0.09345185     1.09400
C711        C  0.93937557  0.99946330  0.91056692     1.07000
C712        C  0.01351328  0.11277465  0.96207798     1.07300
C713        C  0.05118698  0.03557017  0.08133777     1.06900
C714        C  0.97969215  0.92035446  0.02849789     1.06500
C715        C  0.89777662  0.98385310  0.01022403     1.06900
C716        C  0.97863741  0.10119400  0.05306408     1.06400
H717        H  0.95267645  0.97628952  0.03714660     0.33100
O718        O  0.96500535  0.98812776  0.02524134    -1.29500
H719        H  0.97385344  0.08403697  0.99784001     0.33100
O720        O  0.98035870  0.06451218  0.99799221    -1.30900
C721        C  0.51330728  0.41188460  0.28365150    -0.01800
C722        C  0.49424893  0.43491353  0.28460072     0.06800
C723        C  0.47630149  0.43987727  0.26108794    -0.07800
C724        C  0.47602288  0.42143911  0.23741530     0.04200
C725        C  0.49457070  0.39783991  0.23679499    -0.15000
C726        C  0.51356074  0.39388679  0.25976238    -0.08300
C727        C  0.49115346  0.45217555  0.31106030     0.05200
C728        C  0.51499854  0.46728649  0.32191371    -0.09500
C729        C  0.51460782  0.47891895  0.34953168     0.00200
C730        C  0.48969309  0.47622469  0.36634395     0.00000
C731        C  0.46530823  0.46284048  0.35478358    -0.13000
C732        C  0.46579434  0.45080913  0.32735099     0.00500
C733        C  0.54030556  0.49261038  0.36050965     0.39800
C734        C  0.44070964  0.43531536  0.31737420     0.36400
C735        C  0.53146948  0.40509688  0.30772283     0.36100
C736        C  0.45495397  0.42629964  0.21539271     0.36900
N737        N  0.56091081  0.50362732  0.36919580    -0.43900
N738        N  0.42057194  0.42295095  0.30939278    -0.44300
N739        N  0.43781174  0.43079172  0.19812405    -0.41700
N740        N  0.54589982  0.39966176  0.32709559    -0.43100
H741        H  0.52808694  0.37606488  0.25947332     0.13000
H742        H  0.46157730  0.45752701  0.26182318     0.09500
H743        H  0.53443127  0.46863133  0.30935682     0.10600
H744        H  0.44651771  0.45997313  0.36797358     0.16400
C745        C  0.44932028  0.43810470  0.65302718    -0.01800
C746        C  0.47170569  0.42253321  0.66574512     0.06800
C747        C  0.49356852  0.41260130  0.64819453    -0.07800
C748        C  0.49480749  0.41970239  0.61912206     0.04200
C749        C  0.47322331  0.43646635  0.60640689    -0.15000
C750        C  0.45016271  0.44483982  0.62353968    -0.08300
C751        C  0.47256073  0.41510018  0.69694591     0.05200
C752        C  0.44990851  0.39893516  0.70860639    -0.09500
C753        C  0.45194528  0.38703893  0.73605491     0.00200
C754        C  0.47712615  0.39099972  0.75248056     0.00000
C755        C  0.49897476  0.40893015  0.74188074    -0.13000
C756        C  0.49693055  0.42093472  0.71428654     0.00500
C757        C  0.42839155  0.36955876  0.74644427     0.39800
C758        C  0.52066170  0.43806019  0.70375671     0.36400
C759        C  0.42609550  0.44854124  0.67012817     0.36100
C760        C  0.51957835  0.41066417  0.60345350     0.36900
N761        N  0.40962255  0.35547330  0.75485264    -0.43900
N762        N  0.53981762  0.45156177  0.69528123    -0.44300
N763        N  0.53996996  0.40345963  0.59177683    -0.41700
N764        N  0.40753138  0.45660412  0.68410566    -0.43100
H765        H  0.43382642  0.45828096  0.61438921     0.13000
H766        H  0.51031062  0.39974862  0.65749030     0.09500
H767        H  0.43118922  0.39415498  0.69560403     0.10600
H768        H  0.51839118  0.41199445  0.75432123     0.16400
C769        C  0.96039106  0.78859599  0.08147750    -0.01800
C770        C  0.98402916  0.80704498  0.07620982     0.06800
C771        C  0.01097324  0.79978892  0.08712670    -0.07800
C772        C  0.01448133  0.77485507  0.10329285     0.04200
C773        C  0.99061638  0.75727844  0.10956976    -0.15000
C774        C  0.96372499  0.76437596  0.09876859    -0.08300
C775        C  0.98083099  0.83495887  0.06127137     0.05200
C776        C  0.96102914  0.85458725  0.07185584    -0.09500
C777        C  0.95904202  0.88202973  0.06002452     0.00200
C778        C  0.97744899  0.89036313  0.03765525     0.00000
C779        C  0.99721360  0.87090050  0.02701013    -0.13000
C780        C  0.99862818  0.84313668  0.03817417     0.00500
C781        C  0.93872683  0.90171453  0.07174564     0.39800
C782        C  0.01860243  0.82349542  0.02577284     0.36400
C783        C  0.93265763  0.79395411  0.06918145     0.36100
C784        C  0.04253908  0.76818335  0.11399610     0.36900
N785        N  0.92247454  0.91761207  0.08096636    -0.43900
N786        N  0.03449145  0.80758392  0.01594507    -0.44300
N787        N  0.06506618  0.76280468  0.12245354    -0.41700
N788        N  0.91052816  0.79831478  0.05914903    -0.43100
H789        H  0.94523890  0.75112689  0.10416146     0.13000
H790        H  0.02920697  0.81400770  0.08362338     0.09500
H791        H  0.94766133  0.84875914  0.08996750     0.10600
H792        H  0.01228046  0.87770933  0.01067544     0.16400
C793        C  0.98772447  0.23939498  0.08196490    -0.01800
C794        C  0.96637467  0.21878255  0.08898652     0.06800
C795        C  0.94511364  0.22600214  0.10858537    -0.07800
C796        C  0.94630854  0.25223631  0.12306611     0.04200
C797        C  0.96937449  0.27167184  0.11820867    -0.15000
C798        C  0.98903356  0.26563662  0.09657263    -0.08300
C799        C  0.96839894  0.18838051  0.07991077     0.05200
C800        C  0.99186123  0.17289288  0.08958219    -0.09500
C801        C  0.99481698  0.14399909  0.08265653     0.00200
C802        C  0.97364553  0.12971093  0.06591303     0.00000
C803        C  0.94954548  0.14500034  0.05714346    -0.13000
C804        C  0.94688291  0.17416169  0.06382991     0.00500
C805        C  0.02020910  0.13000944  0.09271607     0.39800
C806        C  0.92264282  0.18936420  0.05283741     0.36400
C807        C  0.00910044  0.23367260  0.06060656     0.36100
C808        C  0.92400890  0.25823109  0.14338668     0.36900
N809        N  0.04092436  0.11956666  0.10088484    -0.43900
N810        N  0.90323839  0.20153866  0.04390311    -0.44300
N811        N  0.90595190  0.26272779  0.15955440    -0.41700
N812        N  0.02623566  0.22929918  0.04342168    -0.43100
H813        H  0.00656500  0.28053246  0.09243957     0.13000
H814        H  0.92846172  0.21041552  0.11383520     0.09500
H815        H  0.00811481  0.18357174  0.10256071     0.10600
H816        H  0.93349136  0.13458022  0.04374993     0.16400
C817        C  0.53533111  0.60748596  0.27266682    -0.01800
C818        C  0.51916501  0.61195000  0.29765395     0.06800
C819        C  0.49486244  0.62897254  0.29614385    -0.07800
C820        C  0.48705892  0.64230515  0.27047383     0.04200
C821        C  0.50407337  0.63912454  0.24579110    -0.15000
C822        C  0.52787534  0.62131514  0.24703588    -0.08300
C823        C  0.52541864  0.59744624  0.32524393     0.05200
C824        C  0.54032058  0.61233850  0.34703735    -0.09500
C825        C  0.54120658  0.60152317  0.37526075     0.00200
C826        C  0.52635775  0.57580990  0.38190517     0.00000
C827        C  0.51337710  0.56012504  0.35942679    -0.13000
C828        C  0.51293545  0.57054428  0.33138713     0.00500
C829        C  0.55557292  0.61813933  0.39719578     0.39800
C830        C  0.49793687  0.55406829  0.30965673     0.36400
C831        C  0.55931375  0.58856157  0.27275152     0.36100
C832        C  0.46089891  0.65817043  0.26972032     0.36900
N833        N  0.56720599  0.63149337  0.41472286    -0.43900
N834        N  0.48593244  0.54077752  0.29232520    -0.44300
N835        N  0.43974845  0.67057648  0.26919617    -0.41700
N836        N  0.57839038  0.57317004  0.27260795    -0.43100
H837        H  0.54099955  0.61868560  0.22813512     0.13000
H838        H  0.48171278  0.63148722  0.31505077     0.09500
H839        H  0.55006549  0.63305454  0.34228894     0.10600
H840        H  0.50216446  0.54014753  0.36406950     0.16400
C841        C  0.49369942  0.59079534  0.65758281    -0.01800
C842        C  0.50423248  0.57467450  0.68065652     0.06800
C843        C  0.51634006  0.54794769  0.67542418    -0.07800
C844        C  0.51802622  0.53709008  0.64737190     0.04200
C845        C  0.50753140  0.55329808  0.62399500    -0.15000
C846        C  0.49553668  0.58020064  0.62975200    -0.08300
C847        C  0.50415951  0.58677995  0.70993899     0.05200
C848        C  0.47994489  0.58278918  0.72728221    -0.09500
C849        C  0.47630870  0.59946968  0.75198635     0.00200
C850        C  0.49710268  0.62050724  0.75916464     0.00000
C851        C  0.52226027  0.62273252  0.74310743    -0.13000
C852        C  0.52588490  0.60619071  0.71856969     0.00500
C853        C  0.45031680  0.59602548  0.76828775     0.39800
C854        C  0.55104504  0.61118326  0.70135777     0.36400
C855        C  0.48096339  0.61844139  0.66191870     0.36100
C856        C  0.53030207  0.50927441  0.64339112     0.36900
N857        N  0.42943648  0.59292877  0.78122072    -0.43900
N858        N  0.57122725  0.61541874  0.68764053    -0.44300
N859        N  0.54022050  0.48703283  0.63991701    -0.41700
N860        N  0.47071157  0.64055351  0.66526688    -0.43100
H861        H  0.48738945  0.59328222  0.61243664     0.13000
H862        H  0.52461105  0.53565810  0.69326393     0.09500
H863        H  0.46315442  0.56793128  0.72056093     0.10600
H864        H  0.53833347  0.63881549  0.74876650     0.16400
C865        C  0.00857078  0.17492920  0.91072856    -0.01800
C866        C  0.01080005  0.19867997  0.92920281     0.06800
C867        C  0.01760701  0.19447218  0.95816572    -0.07800
C868        C  0.02066368  0.16669807  0.96925702     0.04200
C869        C  0.01661904  0.14263103  0.95110486    -0.15000
C870        C  0.01166999  0.14732181  0.92167197    -0.08300
C871        C  0.00502357  0.22777223  0.91830089     0.05200
C872        C  0.97666231  0.23489625  0.91221760    -0.09500
C873        C  0.97048666  0.25941325  0.89623452     0.00200
C874        C  0.99292975  0.27726204  0.88642098     0.00000
C875        C  0.02120567  0.27083227  0.89365913    -0.13000
C876        C  0.02737809  0.24644483  0.90981209     0.00500
C877        C  0.94125873  0.26442958  0.88813706     0.39800
C878        C  0.05681243  0.24003387  0.91585826     0.36400
C879        C  0.00208687  0.17839409  0.88059719     0.36100
C880        C  0.02671820  0.16368011  0.99944282     0.36900
N881        N  0.91773226  0.26799957  0.88166207    -0.43900
N882        N  0.08041504  0.23499079  0.92080829    -0.44300
N883        N  0.03185150  0.16133415  0.02360723    -0.41700
N884        N  0.99673046  0.18131789  0.85653517    -0.43100
H885        H  0.00913039  0.12925280  0.90721808     0.13000
H886        H  0.01968235  0.21286285  0.97226408     0.09500
H887        H  0.95947320  0.22031411  0.91846670     0.10600
H888        H  0.03856727  0.28412336  0.88538601     0.16400
C889        C  0.00234107  0.85109794  0.94087988    -0.01800
C890        C  0.01758623  0.84362456  0.91608984     0.06800
C891        C  0.03395235  0.86491640  0.90180289    -0.07800
C892        C  0.03418869  0.89352796  0.91127567     0.04200
C893        C  0.01713357  0.90110551  0.93475629    -0.15000
C894        C  0.00178630  0.87956538  0.94950264    -0.08300
C895        C  0.01389956  0.81457418  0.90337819     0.05200
C896        C  0.98599942  0.80441470  0.89762909    -0.09500
C897        C  0.98107257  0.77745430  0.88550127     0.00200
C898        C  0.00428536  0.76024734  0.87840327     0.00000
C899        C  0.03222262  0.77041375  0.88362686    -0.13000
C900        C  0.03720531  0.79718433  0.89647620     0.00500
C901        C  0.95210069  0.76848611  0.87898770     0.39800
C902        C  0.06627542  0.80640353  0.90212873     0.36400
C903        C  0.98640561  0.83008666  0.95747852     0.36100
C904        C  0.05032725  0.91494294  0.89553979     0.36900
N905        N  0.92894297  0.76113132  0.87373553    -0.43900
N906        N  0.08954891  0.81392429  0.90660021    -0.44300
N907        N  0.06320472  0.93231183  0.88311238    -0.41700
N908        N  0.97351748  0.81328585  0.97064592    -0.43100
H909        H  0.98854409  0.88514718  0.96758141     0.13000
H910        H  0.04556372  0.85945428  0.88256270     0.09500
H911        H  0.96794704  0.81790478  0.90209599     0.10600
H912        H  0.05016484  0.75772349  0.87689910     0.16400
C913        C  0.06765938  0.40345737  0.86412888    -0.01800
C914        C  0.07528143  0.40017331  0.89308723     0.06800
C915        C  0.06129048  0.37943577  0.90979021    -0.07800
C916        C  0.04055185  0.36108648  0.89790283     0.04200
C917        C  0.03326493  0.36353716  0.86841936    -0.15000
C918        C  0.04675629  0.38533055  0.85210841    -0.08300
C919        C  0.09915001  0.41663950  0.90616872     0.05200
C920        C  0.09508418  0.44509400  0.91435936    -0.09500
C921        C  0.11668590  0.46052143  0.92870839     0.00200
C922        C  0.14296859  0.44725365  0.93506602     0.00000
C923        C  0.14705053  0.41888563  0.92608998    -0.13000
C924        C  0.12538370  0.40354587  0.91190555     0.00500
C925        C  0.11137311  0.49000765  0.93604887     0.39800
C926        C  0.13031225  0.37421812  0.90371590     0.36400
C927        C  0.08175878  0.42447329  0.84607855     0.36100
C928        C  0.02855678  0.33956250  0.91676161     0.36900
N929        N  0.10714129  0.51361761  0.94198364    -0.43900
N930        N  0.13404763  0.35067388  0.89719567    -0.44300
N931        N  0.01924081  0.32299254  0.93285461    -0.41700
N932        N  0.09305384  0.44120617  0.83147210    -0.43100
H933        H  0.04110577  0.38823149  0.82974856     0.13000
H934        H  0.06729596  0.37705973  0.93216089     0.09500
H935        H  0.07484045  0.45510663  0.90985064     0.10600
H936        H  0.16701342  0.40838380  0.93068776     0.16400
C937        C  0.06171153  0.36142459  0.08439627    -0.01800
C938        C  0.07625662  0.38465473  0.09780411     0.06800
C939        C  0.06801124  0.39252827  0.12550906    -0.07800
C940        C  0.04616020  0.37779640  0.14003618     0.04200
C941        C  0.03266614  0.35339007  0.12753573    -0.15000
C942        C  0.04038622  0.34584594  0.09940074    -0.08300
C943        C  0.09879989  0.40261773  0.08328663     0.05200
C944        C  0.09475013  0.43232775  0.08122520    -0.09500
C945        C  0.11615384  0.45083350  0.07056460     0.00200
C946        C  0.14241003  0.43972834  0.06124346     0.00000
C947        C  0.14649444  0.40997024  0.06326612    -0.13000
C948        C  0.12512700  0.39147484  0.07420533     0.00500
C949        C  0.11110041  0.48125261  0.07106341     0.39800
C950        C  0.13122909  0.36137175  0.07677203     0.36400
C951        C  0.06736749  0.35407146  0.05491933     0.36100
C952        C  0.03681920  0.38973096  0.16687818     0.36900
N953        N  0.10697049  0.50561304  0.07172606    -0.43900
N954        N  0.13622160  0.33724503  0.07861431    -0.44300
N955        N  0.02945260  0.39963431  0.18828169    -0.41700
N956        N  0.07194902  0.34834843  0.03125494    -0.43100
H957        H  0.02969183  0.32786745  0.08902336     0.13000
H958        H  0.07834929  0.41088502  0.13568195     0.09500
H959        H  0.07485893  0.44122833  0.08862480     0.10600
H960        H  0.16649787  0.40106087  0.05621268     0.16400
C961        C  0.10490358  0.61120638  0.06132493    -0.01800
C962        C  0.10993602  0.62538807  0.08756598     0.06800
C963        C  0.13573904  0.62101621  0.10213207    -0.07800
C964        C  0.15653486  0.60293247  0.09088956     0.04200
C965        C  0.15163676  0.58878368  0.06436237    -0.15000
C966        C  0.12563640  0.59323943  0.04996666    -0.08300
C967        C  0.08769451  0.64308838  0.10122329     0.05200
C968        C  0.07278206  0.63170844  0.12479481    -0.09500
C969        C  0.05078280  0.64694001  0.13771000     0.00200
C970        C  0.04396819  0.67451411  0.12756789     0.00000
C971        C  0.05879703  0.68585986  0.10393591    -0.13000
C972        C  0.08044521  0.67038443  0.09065178     0.00500
C973        C  0.03409965  0.63299619  0.15986599     0.39800
C974        C  0.09457465  0.68284883  0.06604187     0.36400
C975        C  0.07825432  0.61406343  0.04605543     0.36100
C976        C  0.18194755  0.59831286  0.10779930     0.36900
N977        N  0.02038154  0.62191198  0.17740578    -0.43900
N978        N  0.10551976  0.69305679  0.04619518    -0.44300
N979        N  0.20222446  0.59454510  0.12144628    -0.41700
N980        N  0.05690241  0.61623398  0.03376845    -0.43100
H981        H  0.12142533  0.58269102  0.02963758     0.13000
H982        H  0.13943770  0.63146691  0.12260971     0.09500
H983        H  0.07777749  0.61045088  0.13253975     0.10600
H984        H  0.05330253  0.70678912  0.09570459     0.16400
C985        C  0.10070104  0.60360194  0.93530179    -0.01800
C986        C  0.10618398  0.61705929  0.90868945     0.06800
C987        C  0.13320190  0.61439452  0.89627764    -0.07800
C988        C  0.15456918  0.59844982  0.90959594     0.04200
C989        C  0.14915422  0.58461570  0.93621890    -0.15000
C990        C  0.12199129  0.58754389  0.94867903    -0.08300
C991        C  0.08458100  0.63511523  0.89407122     0.05200
C992        C  0.07455502  0.65927380  0.90829500    -0.09500
C993        C  0.05483370  0.67746609  0.89540503     0.00200
C994        C  0.04411107  0.67138114  0.86744974     0.00000
C995        C  0.05458266  0.64717495  0.85314015    -0.13000
C996        C  0.07477660  0.62936254  0.86598585     0.00500
C997        C  0.04731880  0.70247344  0.91163247     0.39800
C998        C  0.08483984  0.60509415  0.85001952     0.36400
C999        C  0.07328975  0.60567049  0.94918624     0.36100
C1000       C  0.18156843  0.59657071  0.89494625     0.36900
N1001       N  0.04171752  0.72191818  0.92577396    -0.43900
N1002       N  0.09310324  0.58577822  0.83714677    -0.44300
N1003       N  0.20313365  0.59538669  0.88301270    -0.41700
N1004       N  0.05137072  0.60741698  0.96036873    -0.43100
H1005       H  0.11734087  0.57744941  0.96914128     0.13000
H1006       H  0.13772182  0.62510274  0.87608719     0.09500
H1007       H  0.08267543  0.66426151  0.92957073     0.10600
H1008       H  0.04668334  0.64174313  0.83192808     0.16400
C1009       C  0.41015749  0.37880941  0.88643138    -0.01800
C1010       C  0.39693036  0.40452653  0.87856925     0.06800
C1011       C  0.40427059  0.41771156  0.85253143    -0.07800
C1012       C  0.42411055  0.40542892  0.83402319     0.04200
C1013       C  0.43735235  0.37953151  0.84170347    -0.15000
C1014       C  0.43016324  0.36658220  0.86807198    -0.08300
C1015       C  0.37539432  0.41817896  0.89712893     0.05200
C1016       C  0.38205579  0.44476134  0.90959047    -0.09500
C1017       C  0.36216109  0.45890910  0.92654849     0.00200
C1018       C  0.33472597  0.44634271  0.93123532     0.00000
C1019       C  0.32819997  0.41963356  0.91867898    -0.13000
C1020       C  0.34817992  0.40560467  0.90169756     0.00500
C1021       C  0.37038937  0.48669592  0.93785440     0.39800
C1022       C  0.33996999  0.37877665  0.88839495     0.36400
C1023       C  0.40372657  0.36485366  0.91337538     0.36100
C1024       C  0.42918732  0.41932398  0.80683512     0.36900
N1025       N  0.37723782  0.50888732  0.94686206    -0.43900
N1026       N  0.33344261  0.35727947  0.87767740    -0.44300
N1027       N  0.43274557  0.43100637  0.78520656    -0.41700
N1028       N  0.39830356  0.35375526  0.93494085    -0.43100
H1029       H  0.44042464  0.34694380  0.87450143     0.13000
H1030       H  0.39399857  0.43745581  0.84640951     0.09500
H1031       H  0.40289487  0.45458261  0.90585670     0.10600
H1032       H  0.30738165  0.40965426  0.92206177     0.16400
C1033       C  0.35870419  0.57859296  0.88227598    -0.01800
C1034       C  0.37934815  0.59784091  0.89373673     0.06800
C1035       C  0.37932671  0.60354515  0.92331020    -0.07800
C1036       C  0.35940156  0.59016457  0.94145855     0.04200
C1037       C  0.33842499  0.57146365  0.92982973    -0.15000
C1038       C  0.33814715  0.56604270  0.90026141    -0.08300
C1039       C  0.40105680  0.61226634  0.87525284     0.05200
C1040       C  0.39200410  0.62889597  0.85192244    -0.09500
C1041       C  0.41180319  0.64250026  0.83381823     0.00200
C1042       C  0.44131397  0.64042841  0.83961388     0.00000
C1043       C  0.45033296  0.62379413  0.86290844    -0.13000
C1044       C  0.43056785  0.60950953  0.88047926     0.00500
C1045       C  0.40131600  0.65699834  0.80862002     0.39800
C1046       C  0.44115167  0.59131887  0.90305676     0.36400
C1047       C  0.35902830  0.57037957  0.85243220     0.36100
C1048       C  0.36032727  0.59677055  0.97168520     0.36900
N1049       N  0.39305260  0.66851204  0.78831064    -0.43900
N1050       N  0.44966537  0.57665980  0.92106836    -0.44300
N1051       N  0.36126096  0.60224913  0.99586682    -0.41700
N1052       N  0.35955291  0.56371220  0.82854937    -0.43100
H1053       H  0.32216526  0.55145960  0.89131280     0.13000
H1054       H  0.39493355  0.61853769  0.93222363     0.09500
H1055       H  0.36936149  0.63092804  0.84762452     0.10600
H1056       H  0.47294832  0.62191724  0.86744431     0.16400
C1057       C  0.35644805  0.59981184  0.11475283    -0.01800
C1058       C  0.38543454  0.59601074  0.10814097     0.06800
C1059       C  0.39253160  0.57972726  0.08408490    -0.07800
C1060       C  0.37132329  0.56739795  0.06647056     0.04200
C1061       C  0.34192671  0.57100804  0.07304296    -0.15000
C1062       C  0.33510567  0.58731764  0.09742704    -0.08300
C1063       C  0.40860188  0.61068263  0.12475972     0.05200
C1064       C  0.41447379  0.60212065  0.15304051    -0.09500
C1065       C  0.43540015  0.61656058  0.16950296     0.00200
C1066       C  0.45078432  0.63998948  0.15758370     0.00000
C1067       C  0.44512794  0.64815692  0.12916477    -0.13000
C1068       C  0.42425188  0.63383062  0.11281584     0.00500
C1069       C  0.43957396  0.60790576  0.19893119     0.39800
C1070       C  0.41834816  0.64404018  0.08420365     0.36400
C1071       C  0.34809602  0.61744043  0.13859236     0.36100
C1072       C  0.38081182  0.55200068  0.04148958     0.36900
N1073       N  0.44275420  0.60092922  0.22253477    -0.43900
N1074       N  0.41341611  0.65221990  0.06131506    -0.44300
N1075       N  0.38857598  0.53983215  0.02144282    -0.41700
N1076       N  0.34145222  0.63169442  0.15763038    -0.43100
H1077       H  0.31296346  0.59057583  0.10303623     0.13000
H1078       H  0.41486116  0.57710868  0.07875000     0.09500
H1079       H  0.40236169  0.58442950  0.16237510     0.10600
H1080       H  0.45692681  0.66602876  0.11976362     0.16400
C1081       C  0.39026094  0.38381085  0.14432169    -0.01800
C1082       C  0.39610349  0.40444510  0.12300749     0.06800
C1083       C  0.42427123  0.41322502  0.11783233    -0.07800
C1084       C  0.44685866  0.40134136  0.13295843     0.04200
C1085       C  0.44135403  0.38020113  0.15419960    -0.15000
C1086       C  0.41282672  0.37181431  0.15967300    -0.08300
C1087       C  0.37328030  0.41739636  0.10569820     0.05200
C1088       C  0.35291398  0.43413252  0.11941886    -0.09500
C1089       C  0.33173373  0.44768781  0.10357472     0.00200
C1090       C  0.33141400  0.44521184  0.07343305     0.00000
C1091       C  0.35177339  0.42852481  0.05969047    -0.13000
C1092       C  0.37243879  0.41429009  0.07561058     0.00500
C1093       C  0.31112407  0.46462015  0.11865290     0.39800
C1094       C  0.39212681  0.39612168  0.06073302     0.36400
C1095       C  0.36133739  0.37443004  0.15035915     0.36100
C1096       C  0.47511814  0.41128555  0.12524362     0.36900
N1097       N  0.29458625  0.47802877  0.13087127    -0.43900
N1098       N  0.40783726  0.38147255  0.04884271    -0.44300
N1099       N  0.49722702  0.42042401  0.11851282    -0.41700
N1100       N  0.33801571  0.36726990  0.15499287    -0.43100
H1101       H  0.40808489  0.35604206  0.17615650     0.13000
H1102       H  0.42861434  0.42942595  0.10161586     0.09500
H1103       H  0.35375596  0.43678426  0.14251603     0.10600
H1104       H  0.35122454  0.42628064  0.03653695     0.16400
C1105       C  0.59503862  0.44883159  0.08193333    -0.01800
C1106       C  0.60032838  0.42329846  0.09698138     0.06800
C1107       C  0.62649161  0.40976190  0.09356251    -0.07800
C1108       C  0.64772214  0.42161524  0.07592161     0.04200
C1109       C  0.64314552  0.44811409  0.06187761    -0.15000
C1110       C  0.61646673  0.46116616  0.06480464    -0.08300
C1111       C  0.57845495  0.40940076  0.11535661     0.05200
C1112       C  0.56350091  0.38540412  0.10470332    -0.09500
C1113       C  0.54315465  0.37103212  0.12154727     0.00200
C1114       C  0.53805348  0.38038269  0.14983213     0.00000
C1115       C  0.55284076  0.40456031  0.16038317    -0.13000
C1116       C  0.57292183  0.41916407  0.14335809     0.00500
C1117       C  0.52637919  0.34817132  0.10863558     0.39800
C1118       C  0.58761180  0.44397813  0.15508283     0.36400
C1119       C  0.56757661  0.46229498  0.08312383     0.36100
C1120       C  0.67324317  0.40526468  0.07163508     0.36900
N1121       N  0.51272808  0.33009767  0.09813076    -0.43900
N1122       N  0.59920147  0.46391878  0.16461732    -0.44300
N1123       N  0.69348911  0.39189595  0.06809195    -0.41700
N1124       N  0.54551925  0.47302751  0.08376078    -0.43100
H1125       H  0.61234274  0.48121662  0.05390730     0.13000
H1126       H  0.63016227  0.38960991  0.10447776     0.09500
H1127       H  0.56745040  0.37820165  0.08299137     0.10600
H1128       H  0.54866789  0.41201883  0.18196363     0.16400
C1129       C  0.60625708  0.57024764  0.09820090    -0.01800
C1130       C  0.60574651  0.60014956  0.10287327     0.06800
C1131       C  0.62663400  0.61770478  0.08976884    -0.07800
C1132       C  0.64753428  0.60604542  0.07205650     0.04200
C1133       C  0.64713133  0.57637821  0.06626895    -0.15000
C1134       C  0.62632263  0.55876751  0.07938254    -0.08300
C1135       C  0.58428238  0.61371434  0.12183354     0.05200
C1136       C  0.59390193  0.62993695  0.14546659    -0.09500
C1137       C  0.57463568  0.64438061  0.16299459     0.00200
C1138       C  0.54515840  0.64278778  0.15692394     0.00000
C1139       C  0.53543132  0.62625045  0.13367559    -0.13000
C1140       C  0.55465161  0.61193195  0.11602438     0.00500
C1141       C  0.58546425  0.66006754  0.18750195     0.39800
C1142       C  0.54342750  0.59641166  0.09158392     0.36400
C1143       C  0.58772668  0.55073700  0.11380876     0.36100
C1144       C  0.66911153  0.62497257  0.06006716     0.36900
N1145       N  0.59407604  0.67253905  0.20724239    -0.43900
N1146       N  0.53424876  0.58384535  0.07215396    -0.44300
N1147       N  0.68659417  0.64009695  0.05073333    -0.41700
N1148       N  0.57315099  0.53495921  0.12646608    -0.43100
H1149       H  0.62650606  0.53579730  0.07583967     0.13000
H1150       H  0.62672141  0.64062890  0.09358011     0.09500
H1151       H  0.61656959  0.63131469  0.15020744     0.10600
H1152       H  0.51276149  0.62513542  0.12885491     0.16400
C1153       C  0.59982248  0.60131997  0.92105745    -0.01800
C1154       C  0.60472401  0.60931071  0.89230077     0.06800
C1155       C  0.63144810  0.60453067  0.88003907    -0.07800
C1156       C  0.65305938  0.59128823  0.89564766     0.04200
C1157       C  0.64796284  0.58230102  0.92428213    -0.15000
C1158       C  0.62128243  0.58775815  0.93667986    -0.08300
C1159       C  0.58222190  0.62232551  0.87437318     0.05200
C1160       C  0.57237164  0.64959315  0.88135687    -0.09500
C1161       C  0.55088201  0.66241347  0.86510410     0.00200
C1162       C  0.53923141  0.64796116  0.84094872     0.00000
C1163       C  0.54974855  0.62094751  0.83367293    -0.13000
C1164       C  0.57074223  0.60794035  0.85028435     0.00500
C1165       C  0.54048150  0.68964661  0.87473569     0.39800
C1166       C  0.57919158  0.57928261  0.84290429     0.36400
C1167       C  0.57283242  0.60636404  0.93485625     0.36100
C1168       C  0.67986294  0.58667400  0.88127001     0.36900
N1169       N  0.53251051  0.71149833  0.88284169    -0.43900
N1170       N  0.58566691  0.55622678  0.83700509    -0.44300
N1171       N  0.70139752  0.58324502  0.86978873    -0.41700
N1172       N  0.55131084  0.61054037  0.94607691    -0.43100
H1173       H  0.61712001  0.58138552  0.95867048     0.13000
H1174       H  0.63532944  0.61101250  0.85801786     0.09500
H1175       H  0.58125503  0.66070331  0.89985658     0.10600
H1176       H  0.54134771  0.60971782  0.81503850     0.16400
C1177       C  0.62575341  0.40821840  0.89561078    -0.01800
C1178       C  0.60048619  0.42223463  0.88772637     0.06800
C1179       C  0.59646160  0.45046248  0.89692115    -0.07800
C1180       C  0.61708292  0.46480013  0.91375260     0.04200
C1181       C  0.64235454  0.45069525  0.92199200    -0.15000
C1182       C  0.64633016  0.42242346  0.91258944    -0.08300
C1183       C  0.57777081  0.40773667  0.87030128     0.05200
C1184       C  0.56113674  0.38583381  0.88290845    -0.09500
C1185       C  0.53883863  0.37235201  0.86761853     0.00200
C1186       C  0.53324486  0.38036550  0.83893360     0.00000
C1187       C  0.54968167  0.40240270  0.82640477    -0.13000
C1188       C  0.57173665  0.41617678  0.84184542     0.00500
C1189       C  0.52097569  0.35148295  0.88226814     0.39800
C1190       C  0.58795942  0.43879609  0.82797243     0.36400
C1191       C  0.63147591  0.37959590  0.88576902     0.36100
C1192       C  0.61224081  0.49437345  0.92100125     0.36900
N1193       N  0.50641158  0.33497052  0.89398408    -0.43900
N1194       N  0.60076609  0.45700769  0.81672758    -0.44300
N1195       N  0.60825089  0.51810203  0.92661066    -0.41700
N1196       N  0.63629189  0.35673242  0.87778045    -0.43100
H1197       H  0.66560734  0.41131715  0.91854177     0.13000
H1198       H  0.57714521  0.46139205  0.89075505     0.09500
H1199       H  0.56521704  0.37970385  0.90496850     0.10600
H1200       H  0.54541959  0.40869463  0.80443088     0.16400
C1201       C  0.87770250  0.41935518  0.06132991    -0.01800
C1202       C  0.87277258  0.40914653  0.08934425     0.06800
C1203       C  0.84755252  0.41632300  0.10342605    -0.07800
C1204       C  0.82699662  0.43309200  0.08983565     0.04200
C1205       C  0.83182606  0.44343689  0.06160946    -0.15000
C1206       C  0.85740586  0.43646827  0.04785923    -0.08300
C1207       C  0.89407124  0.39168743  0.10467755     0.05200
C1208       C  0.91205052  0.40513400  0.12483451    -0.09500
C1209       C  0.93305050  0.38970459  0.13928594     0.00200
C1210       C  0.93623137  0.36027052  0.13359556     0.00000
C1211       C  0.91804223  0.34675968  0.11358035    -0.13000
C1212       C  0.89686039  0.36215163  0.09931948     0.00500
C1213       C  0.95190264  0.40492194  0.15871144     0.39800
C1214       C  0.87794942  0.34716354  0.07969988     0.36400
C1215       C  0.90338985  0.41250588  0.04596441     0.36100
C1216       C  0.80141208  0.43938002  0.10563745     0.36900
N1217       N  0.96693290  0.41753673  0.17406978    -0.43900
N1218       N  0.86271785  0.33501926  0.06413990    -0.44300
N1219       N  0.78092619  0.44396820  0.11850951    -0.41700
N1220       N  0.92389880  0.40702219  0.03350995    -0.43100
H1221       H  0.86122168  0.44375470  0.02618759     0.13000
H1222       H  0.84386865  0.40862337  0.12508842     0.09500
H1223       H  0.90993497  0.42786923  0.12892683     0.10600
H1224       H  0.92028112  0.32407926  0.10925462     0.16400
C1225       C  0.84400709  0.40875986  0.88865586    -0.01800
C1226       C  0.87192848  0.40566775  0.89941704     0.06800
C1227       C  0.88023589  0.42102708  0.92394644    -0.07800
C1228       C  0.86130681  0.43911033  0.93797850     0.04200
C1229       C  0.83277344  0.44154082  0.92792092    -0.15000
C1230       C  0.82467296  0.42614973  0.90310193    -0.08300
C1231       C  0.89358330  0.38817342  0.88453376     0.05200
C1232       C  0.91870781  0.40189420  0.87496527    -0.09500
C1233       C  0.94038337  0.38639457  0.86197760     0.00200
C1234       C  0.93702536  0.35661408  0.85808460     0.00000
C1235       C  0.91171765  0.34287023  0.86700836    -0.13000
C1236       C  0.89019334  0.35827712  0.88060848     0.00500
C1237       C  0.96587920  0.40159780  0.85287288     0.39800
C1238       C  0.86565990  0.34277831  0.89175137     0.36400
C1239       C  0.83510845  0.39532137  0.86214233     0.36100
C1240       C  0.87241679  0.45510737  0.96216266     0.36900
N1241       N  0.98610358  0.41414788  0.84554651    -0.43900
N1242       N  0.84598615  0.33043765  0.90076305    -0.44300
N1243       N  0.88199093  0.46819915  0.98105222    -0.41700
N1244       N  0.82812253  0.38451554  0.84086357    -0.43100
H1245       H  0.80327446  0.42812360  0.89447895     0.13000
H1246       H  0.90188866  0.41912998  0.93198600     0.09500
H1247       H  0.92149692  0.42482707  0.87793518     0.10600
H1248       H  0.90917070  0.31997780  0.86414309     0.16400
C1249       C  0.85576486  0.63094915  0.91477162    -0.01800
C1250       C  0.88127756  0.61870201  0.90486468     0.06800
C1251       C  0.88450616  0.58892298  0.90732051    -0.07800
C1252       C  0.86302497  0.57146080  0.91947113     0.04200
C1253       C  0.83766707  0.58375717  0.92972670    -0.15000
C1254       C  0.83431151  0.61350855  0.92695961    -0.08300
C1255       C  0.90481244  0.63665927  0.89218355     0.05200
C1256       C  0.91667376  0.65945585  0.90818371    -0.09500
C1257       C  0.93768685  0.67789246  0.89658930     0.00200
C1258       C  0.94783652  0.67329873  0.86841142     0.00000
C1259       C  0.93672681  0.64962938  0.85299579    -0.13000
C1260       C  0.91534135  0.63166651  0.86436142     0.00500
C1261       C  0.94729353  0.70173203  0.91398936     0.39800
C1262       C  0.90403403  0.60884855  0.84651522     0.36400
C1263       C  0.85090824  0.66133265  0.91231633     0.36100
C1264       C  0.86720055  0.54090002  0.92030922     0.36900
N1265       N  0.95475038  0.72053249  0.92851954    -0.43900
N1266       N  0.89518666  0.59061965  0.83201529    -0.44300
N1267       N  0.87047725  0.51639388  0.92092738    -0.41700
N1268       N  0.84719533  0.68571017  0.91042746    -0.43100
H1269       H  0.81498956  0.62327422  0.93474015     0.13000
H1270       H  0.90399135  0.57926773  0.89983461     0.09500
H1271       H  0.90909860  0.66315220  0.92979807     0.10600
H1272       H  0.94471859  0.64503055  0.83173945     0.16400
C1273       C  0.88761969  0.59675558  0.05936610    -0.01800
C1274       C  0.88279761  0.61283386  0.08431232     0.06800
C1275       C  0.85578990  0.61193021  0.09712697    -0.07800
C1276       C  0.83338633  0.59566500  0.08514666     0.04200
C1277       C  0.83790472  0.57993651  0.05960186    -0.15000
C1278       C  0.86536329  0.58039426  0.04735245    -0.08300
C1279       C  0.90563988  0.63103570  0.09715465     0.05200
C1280       C  0.91635926  0.65452168  0.08159786    -0.09500
C1281       C  0.93774922  0.67252051  0.09300069     0.00200
C1282       C  0.94838146  0.66742097  0.12100840     0.00000
C1283       C  0.93816460  0.64306462  0.13599133    -0.13000
C1284       C  0.91694333  0.62508024  0.12441270     0.00500
C1285       C  0.94775751  0.69575129  0.07506640     0.39800
C1286       C  0.90740019  0.60034635  0.14063487     0.36400
C1287       C  0.91525966  0.59687198  0.04571831     0.36100
C1288       C  0.80629885  0.59543391  0.09987809     0.36900
N1289       N  0.95546977  0.71356943  0.05948137    -0.43900
N1290       N  0.89967571  0.58047002  0.15350089    -0.44300
N1291       N  0.78463465  0.59536463  0.11174820    -0.41700
N1292       N  0.93745162  0.59727661  0.03488015    -0.43100
H1293       H  0.86941320  0.56850507  0.02786877     0.13000
H1294       H  0.85216918  0.62423620  0.11645611     0.09500
H1295       H  0.90780857  0.65885620  0.06040598     0.10600
H1296       H  0.94680015  0.63794022  0.15694009     0.16400
C1297       C  0.03798802  0.00971192  0.82433572    -0.01800
C1298       C  0.06474629  0.02208241  0.81748482     0.06800
C1299       C  0.07868249  0.04016688  0.83732745    -0.07800
C1300       C  0.06685544  0.04482234  0.86440739     0.04200
C1301       C  0.04100022  0.03092893  0.87182119    -0.15000
C1302       C  0.02648268  0.01394545  0.85155675    -0.08300
C1303       C  0.07943567  0.01496573  0.79052565     0.05200
C1304       C  0.07048317  0.02737266  0.76482574    -0.09500
C1305       C  0.08518342  0.02258638  0.73920348     0.00200
C1306       C  0.11018712  0.00578573  0.73940190     0.00000
C1307       C  0.11724272  0.99133022  0.76498029    -0.13000
C1308       C  0.10216735  0.99576921  0.79031156     0.00500
C1309       C  0.07329772  0.03507165  0.71366970     0.39800
C1310       C  0.11016497  0.98017384  0.81579454     0.36400
C1311       C  0.02268310  0.99151280  0.80431308     0.36100
C1312       C  0.08156537  0.06358645  0.88439511     0.36900
N1313       N  0.06235586  0.04470884  0.69366382    -0.43900
N1314       N  0.11636137  0.96748074  0.83614957    -0.44300
N1315       N  0.09308298  0.07883762  0.90039937    -0.41700
N1316       N  0.01031090  0.97702136  0.78824278    -0.43100
H1317       H  0.00682757  0.00283760  0.85749692     0.13000
H1318       H  0.09909696  0.05004266  0.83186659     0.09500
H1319       H  0.05204969  0.04111179  0.76489508     0.10600
H1320       H  0.13495969  0.97672585  0.76541048     0.16400
C1321       C  0.10067633  0.02652401  0.14374532    -0.01800
C1322       C  0.08376055  0.03635332  0.16658193     0.06800
C1323       C  0.05784238  0.04965664  0.16058979    -0.07800
C1324       C  0.04776944  0.05152678  0.13233172     0.04200
C1325       C  0.06429219  0.04093410  0.10954506    -0.15000
C1326       C  0.09084085  0.02886130  0.11547631    -0.08300
C1327       C  0.09237648  0.03158084  0.19680128     0.05200
C1328       C  0.10227473  0.05492107  0.21313599    -0.09500
C1329       C  0.11487461  0.05056760  0.24003105     0.00200
C1330       C  0.11727331  0.02248623  0.25097685     0.00000
C1331       C  0.10595818  0.99935385  0.23534124    -0.13000
C1332       C  0.09324237  0.00370414  0.20854585     0.00500
C1333       C  0.12691913  0.07499215  0.25507394     0.39800
C1334       C  0.08221111  0.97914746  0.19298996     0.36400
C1335       C  0.12762880  0.01289499  0.14903130     0.36100
C1336       C  0.01933414  0.06195466  0.12747477     0.36900
N1337       N  0.13662565  0.09463983  0.26696983    -0.43900
N1338       N  0.07341567  0.95942854  0.18054868    -0.44300
N1339       N  0.99653184  0.07025555  0.12354718    -0.41700
N1340       N  0.14907635  0.00181479  0.15356284    -0.43100
H1341       H  0.10316776  0.01985592  0.09813737     0.13000
H1342       H  0.04476823  0.05710892  0.17812042     0.09500
H1343       H  0.10155029  0.07636379  0.20419556     0.10600
H1344       H  0.10837599  0.97773123  0.24340734     0.16400
C1345       C  0.23962851  0.50706537  0.24788111    -0.01800
C1346       C  0.21920097  0.51483147  0.22728951     0.06800
C1347       C  0.19160880  0.52136348  0.23616797    -0.07800
C1348       C  0.18419251  0.52079917  0.26519235     0.04200
C1349       C  0.20513297  0.51516040  0.28651078    -0.15000
C1350       C  0.23262791  0.50745995  0.27706661    -0.08300
C1351       C  0.22515357  0.51385372  0.19613635     0.05200
C1352       C  0.21176061  0.49233417  0.17980073    -0.09500
C1353       C  0.21512773  0.49133115  0.15005325     0.00200
C1354       C  0.23278929  0.51197847  0.13608707     0.00000
C1355       C  0.24607890  0.53366461  0.15259733    -0.13000
C1356       C  0.24225488  0.53483572  0.18236328     0.00500
C1357       C  0.19864565  0.46995367  0.13449892     0.39800
C1358       C  0.25501183  0.55841738  0.19812644     0.36400
C1359       C  0.26726850  0.49677920  0.23947436     0.36100
C1360       C  0.15451156  0.52485301  0.27206156     0.36900
N1361       N  0.18512799  0.45283617  0.12236478    -0.43900
N1362       N  0.26509075  0.57747858  0.21064833    -0.44300
N1363       N  0.13066741  0.52809103  0.27732950    -0.41700
N1364       N  0.28930727  0.48819807  0.23285317    -0.43100
H1365       H  0.24857540  0.50013806  0.29196184     0.13000
H1366       H  0.17550991  0.52614402  0.22016179     0.09500
H1367       H  0.19805041  0.47659256  0.19035203     0.10600
H1368       H  0.25933823  0.54988608  0.14221884     0.16400
C1369       C  0.27071131  0.47462647  0.41024902    -0.01800
C1370       C  0.28430022  0.49795332  0.42423076     0.06800
C1371       C  0.27172975  0.52504488  0.42326340    -0.07800
C1372       C  0.24708364  0.52945125  0.40676230     0.04200
C1373       C  0.23494825  0.50651222  0.39106825    -0.15000
C1374       C  0.24619951  0.47907243  0.39382795    -0.08300
C1375       C  0.31400682  0.49558984  0.43485927     0.05200
C1376       C  0.33554363  0.49247162  0.41439453    -0.09500
C1377       C  0.36420713  0.49153736  0.42250691     0.00200
C1378       C  0.37180996  0.49317057  0.45178675     0.00000
C1379       C  0.35014703  0.49546763  0.47242849    -0.13000
C1380       C  0.32138162  0.49712353  0.46414889     0.00500
C1381       C  0.38526844  0.48919685  0.40019219     0.39800
C1382       C  0.29997588  0.50074358  0.48595276     0.36400
C1383       C  0.28256811  0.44630648  0.41102539     0.36100
C1384       C  0.23557306  0.55786464  0.40478031     0.36900
N1385       N  0.40183174  0.48765254  0.38196121    -0.43900
N1386       N  0.28298894  0.50375363  0.50360308    -0.44300
N1387       N  0.22619025  0.58057641  0.40320639    -0.41700
N1388       N  0.29207114  0.42360588  0.41156449    -0.43100
H1389       H  0.23678401  0.46142802  0.38171908     0.13000
H1390       H  0.28220394  0.54308040  0.43383098     0.09500
H1391       H  0.32990143  0.49139868  0.39182366     0.10600
H1392       H  0.35579361  0.49718019  0.49495465     0.16400
C1393       C  0.79883059  0.48157276  0.22453556    -0.01800
C1394       C  0.78656648  0.50637576  0.21306347     0.06800
C1395       C  0.78132674  0.52954489  0.23103837    -0.07800
C1396       C  0.78737177  0.52814496  0.26038267     0.04200
C1397       C  0.79989943  0.50323656  0.27245992    -0.15000
C1398       C  0.80549715  0.48017409  0.25385675    -0.08300
C1399       C  0.77715328  0.50802030  0.18276757     0.05200
C1400       C  0.75098101  0.49508701  0.17494311    -0.09500
C1401       C  0.74073999  0.49698689  0.14675009     0.00200
C1402       C  0.75685024  0.51209334  0.12599980     0.00000
C1403       C  0.78296848  0.52508056  0.13389058    -0.13000
C1404       C  0.79316826  0.52325093  0.16204528     0.00500
C1405       C  0.71338941  0.48398778  0.13974255     0.39800
C1406       C  0.82030223  0.53669810  0.16902349     0.36400
C1407       C  0.80423238  0.45706242  0.20663653     0.36100
C1408       C  0.77967776  0.55260221  0.27746034     0.36900
N1409       N  0.69141411  0.47371780  0.13406536    -0.43900
N1410       N  0.84208312  0.54751249  0.17443975    -0.44300
N1411       N  0.77365274  0.57245613  0.29081361    -0.41700
N1412       N  0.80851548  0.43740937  0.19228506    -0.43100
H1413       H  0.81397070  0.46039427  0.26191203     0.13000
H1414       H  0.77160006  0.54855125  0.22218176     0.09500
H1415       H  0.73845968  0.48369468  0.19098380     0.10600
H1416       H  0.79581187  0.53600392  0.11779378     0.16400
C1417       C  0.71651908  0.46656697  0.39212432    -0.01800
C1418       C  0.69688747  0.48914040  0.39163614     0.06800
C1419       C  0.70529098  0.51558583  0.37964258    -0.07800
C1420       C  0.73237649  0.51968834  0.36782903     0.04200
C1421       C  0.75164380  0.49688523  0.36731670    -0.15000
C1422       C  0.74364660  0.47054278  0.37977609    -0.08300
C1423       C  0.66872651  0.48761549  0.40624594     0.05200
C1424       C  0.66419436  0.50767839  0.42782910    -0.09500
C1425       C  0.63725017  0.51154759  0.43944867     0.00200
C1426       C  0.61374341  0.49397241  0.43042495     0.00000
C1427       C  0.61864034  0.47259285  0.40985047    -0.13000
C1428       C  0.64574362  0.46965576  0.39732831     0.00500
C1429       C  0.63503374  0.53453644  0.45998469     0.39800
C1430       C  0.64897498  0.44915150  0.37450872     0.36400
C1431       C  0.70945608  0.43939698  0.40535004     0.36100
C1432       C  0.74015376  0.54782253  0.35719640     0.36900
N1433       N  0.63422597  0.55352494  0.47586723    -0.43900
N1434       N  0.65139894  0.43259977  0.35626549    -0.44300
N1435       N  0.74623896  0.57067946  0.34943138    -0.41700
N1436       N  0.70371202  0.41755998  0.41583200    -0.43100
H1437       H  0.75827428  0.45284558  0.37912318     0.13000
H1438       H  0.69062985  0.53331369  0.37986759     0.09500
H1439       H  0.68182652  0.52145235  0.43479576     0.10600
H1440       H  0.60104506  0.45896284  0.40264926     0.16400
C1441       C  0.89374045  0.97094763  0.77411698    -0.01800
C1442       C  0.89009184  0.99108328  0.79630741     0.06800
C1443       C  0.87519237  0.01623370  0.79053111    -0.07800
C1444       C  0.86308161  0.02111425  0.76362990     0.04200
C1445       C  0.86586270  0.00064876  0.74163255    -0.15000
C1446       C  0.88201381  0.97612643  0.74682719    -0.08300
C1447       C  0.90441107  0.98895965  0.82469744     0.05200
C1448       C  0.92626589  0.00882992  0.83012866    -0.09500
C1449       C  0.93709453  0.01294659  0.85765750     0.00200
C1450       C  0.92756074  0.99522894  0.88086862     0.00000
C1451       C  0.90626933  0.97423930  0.87507860    -0.13000
C1452       C  0.89407114  0.97164021  0.84739604     0.00500
C1453       C  0.95660611  0.03708864  0.86085969     0.39800
C1454       C  0.86976508  0.95267858  0.84309255     0.36400
C1455       C  0.90862742  0.94459842  0.77900217     0.36100
C1456       C  0.84789692  0.04739393  0.75908883     0.36900
N1457       N  0.97142992  0.05713450  0.86254381    -0.43900
N1458       N  0.85004540  0.93780286  0.83945198    -0.44300
N1459       N  0.83567865  0.06842130  0.75548761    -0.41700
N1460       N  0.92015455  0.92319734  0.78277184    -0.43100
H1461       H  0.88440328  0.96044595  0.72997002     0.13000
H1462       H  0.87303968  0.03219146  0.80724873     0.09500
H1463       H  0.93365393  0.02269217  0.81283763     0.10600
H1464       H  0.89812152  0.96095049  0.89240578     0.16400
C1465       C  0.92124031  0.01791633  0.23137555    -0.01800
C1466       C  0.91442205  0.00074099  0.20740801     0.06800
C1467       C  0.89058100  0.98216408  0.20860887    -0.07800
C1468       C  0.87230664  0.98222096  0.23227646     0.04200
C1469       C  0.87726951  0.00193931  0.25485484    -0.15000
C1470       C  0.90242740  0.01877528  0.25459372    -0.08300
C1471       C  0.93018541  0.00333157  0.17996405     0.05200
C1472       C  0.94349649  0.97919852  0.16859895    -0.09500
C1473       C  0.95528639  0.97983542  0.14100412     0.00200
C1474       C  0.95269771  0.00465048  0.12382138     0.00000
C1475       C  0.94015581  0.02905107  0.13570694    -0.13000
C1476       C  0.92941411  0.02876077  0.16360779     0.00500
C1477       C  0.96916144  0.95451399  0.13068377     0.39800
C1478       C  0.91702805  0.05464422  0.17460804     0.36400
C1479       C  0.94749152  0.03458396  0.23264871     0.36100
C1480       C  0.84916162  0.96134124  0.23313083     0.36900
N1481       N  0.98066307  0.93443855  0.12238749    -0.43900
N1482       N  0.90753977  0.07551279  0.18357595    -0.44300
N1483       N  0.83067243  0.94455826  0.23392338    -0.41700
N1484       N  0.96866581  0.04771857  0.23375406    -0.43100
H1485       H  0.90714947  0.03318700  0.27215611     0.13000
H1486       H  0.88583764  0.96808267  0.19065658     0.09500
H1487       H  0.94430049  0.95968581  0.18121264     0.10600
H1488       H  0.93862943  0.04851677  0.12309903     0.16400
C1489       C  0.18398954  0.53316616  0.76671463    -0.01800
C1490       C  0.20602538  0.51599065  0.77735186     0.06800
C1491       C  0.22042370  0.49808716  0.75858358    -0.07800
C1492       C  0.21398135  0.49772063  0.72931827     0.04200
C1493       C  0.19309054  0.51639350  0.71777321    -0.15000
C1494       C  0.17787402  0.53353720  0.73720053    -0.08300
C1495       C  0.21378481  0.51527606  0.80820424     0.05200
C1496       C  0.20743456  0.49043485  0.82392292    -0.09500
C1497       C  0.21462873  0.48836361  0.85298354     0.00200
C1498       C  0.22889374  0.51158386  0.86695835     0.00000
C1499       C  0.23559772  0.53635885  0.85082076    -0.13000
C1500       C  0.22822049  0.53832679  0.82173259     0.00500
C1501       C  0.20601200  0.46243425  0.86779083     0.39800
C1502       C  0.23612800  0.56394455  0.80603540     0.36400
C1503       C  0.16671985  0.54968965  0.78596560     0.36100
C1504       C  0.22981969  0.47813483  0.71173985     0.36900
N1505       N  0.19904692  0.44152962  0.87939898    -0.43900
N1506       N  0.24247657  0.58444401  0.79340971    -0.44300
N1507       N  0.24280183  0.46244304  0.69797085    -0.41700
N1508       N  0.15282943  0.56259662  0.80163273    -0.43100
H1509       H  0.16091779  0.54708083  0.72991769     0.13000
H1510       H  0.23690984  0.48429112  0.76691760     0.09500
H1511       H  0.19643358  0.47264663  0.81342919     0.10600
H1512       H  0.24665168  0.55432445  0.86091268     0.16400
C1513       C  0.34330216  0.55573970  0.58023690    -0.01800
C1514       C  0.32625797  0.53086404  0.58504513     0.06800
C1515       C  0.33745827  0.50418130  0.57823178    -0.07800
C1516       C  0.36546675  0.50142781  0.56899057     0.04200
C1517       C  0.38276834  0.52623971  0.56343885    -0.15000
C1518       C  0.37116013  0.55327305  0.56917859    -0.08300
C1519       C  0.29779374  0.53083086  0.59949014     0.05200
C1520       C  0.27454252  0.54558577  0.58765162    -0.09500
C1521       C  0.24703514  0.54311610  0.59987490     0.00200
C1522       C  0.24252543  0.52523692  0.62399502     0.00000
C1523       C  0.26568532  0.51004379  0.63502832    -0.13000
C1524       C  0.29299893  0.51328502  0.62379003     0.00500
C1525       C  0.22416908  0.55958033  0.58779068     0.39800
C1526       C  0.31589413  0.49864987  0.63823349     0.36400
C1527       C  0.33306443  0.58389291  0.58693064     0.36100
C1528       C  0.37570967  0.47244634  0.56690067     0.36900
N1529       N  0.20585262  0.57274970  0.57798179    -0.43900
N1530       N  0.33410546  0.48681231  0.64983004    -0.44300
N1531       N  0.38367363  0.44916191  0.56551502    -0.41700
N1532       N  0.32509420  0.60661576  0.59213484    -0.43100
H1533       H  0.38379029  0.57253138  0.56504734     0.13000
H1534       H  0.32446559  0.48495719  0.58154089     0.09500
H1535       H  0.27780282  0.55879015  0.56875900     0.10600
H1536       H  0.26260341  0.49594628  0.65328832     0.16400
C1537       C  0.78755225  0.48380983  0.76154691    -0.01800
C1538       C  0.76954505  0.50584166  0.77045851     0.06800
C1539       C  0.76148705  0.52692253  0.75098485    -0.07800
C1540       C  0.77080125  0.52628535  0.72264796     0.04200
C1541       C  0.78849091  0.50379838  0.71297467    -0.15000
C1542       C  0.79668744  0.48276817  0.73303490    -0.08300
C1543       C  0.76076521  0.50873713  0.80062295     0.05200
C1544       C  0.77156239  0.53213691  0.81620917    -0.09500
C1545       C  0.76559636  0.53505813  0.84532355     0.00200
C1546       C  0.74854932  0.51399806  0.85937951     0.00000
C1547       C  0.73682397  0.49112248  0.84330711    -0.13000
C1548       C  0.74254239  0.48854020  0.81404231     0.00500
C1549       C  0.77852312  0.55915276  0.86019625     0.39800
C1550       C  0.72928132  0.46530791  0.79812521     0.36400
C1551       C  0.79767981  0.46264385  0.78162857     0.36100
C1552       C  0.76183831  0.54932802  0.70413654     0.36900
N1553       N  0.78891346  0.57864102  0.87178155    -0.43900
N1554       N  0.71858247  0.44679720  0.78528265    -0.44300
N1555       N  0.75468649  0.56792215  0.68949831    -0.41700
N1556       N  0.80566660  0.44586091  0.79793977    -0.43100
H1557       H  0.81027902  0.46540294  0.72713157     0.13000
H1558       H  0.74801861  0.54417473  0.75811189     0.09500
H1559       H  0.78537280  0.54780808  0.80567782     0.10600
H1560       H  0.72326416  0.47512723  0.85365148     0.16400
C1561       C  0.66234469  0.54146786  0.56974552    -0.01800
C1562       C  0.67884145  0.51776826  0.56172981     0.06800
C1563       C  0.66798607  0.49817203  0.54159890    -0.07800
C1564       C  0.64055749  0.50121376  0.53030975     0.04200
C1565       C  0.62352487  0.52412558  0.53934381    -0.15000
C1566       C  0.63475104  0.54443142  0.55856205    -0.08300
C1567       C  0.70584473  0.51119488  0.57664892     0.05200
C1568       C  0.70583649  0.48822614  0.59603251    -0.09500
C1569       C  0.72963543  0.48317325  0.61329489     0.00200
C1570       C  0.75383852  0.50159973  0.61149157     0.00000
C1571       C  0.75474776  0.52294366  0.59027302    -0.13000
C1572       C  0.73088115  0.52795043  0.57294494     0.00500
C1573       C  0.72881424  0.45884549  0.63249226     0.39800
C1574       C  0.73226097  0.55066285  0.55194348     0.36400
C1575       C  0.67277359  0.56213284  0.59046024     0.36100
C1576       C  0.63008607  0.48011093  0.51004254     0.36900
N1577       N  0.72830921  0.43935491  0.64786550    -0.43900
N1578       N  0.73329972  0.56884760  0.53506723    -0.44300
N1579       N  0.62199064  0.46320854  0.49366048    -0.41700
N1580       N  0.68129719  0.57873896  0.60694489    -0.43100
H1581       H  0.62157150  0.56188576  0.56569028     0.13000
H1582       H  0.68065138  0.47997633  0.53541681     0.09500
H1583       H  0.68684344  0.47475545  0.59827747     0.10600
H1584       H  0.77357850  0.53658373  0.58810038     0.16400
C1585       C  0.96921400  0.28592713  0.32447616    -0.01800
C1586       C  0.99390167  0.28708045  0.30732991     0.06800
C1587       C  0.02022674  0.28010714  0.31969957    -0.07800
C1588       C  0.02233843  0.27230535  0.34872020     0.04200
C1589       C  0.99756832  0.27158100  0.36627863    -0.15000
C1590       C  0.97121346  0.27839408  0.35348708    -0.08300
C1591       C  0.99263236  0.29525270  0.27641512     0.05200
C1592       C  0.98482569  0.32309118  0.26865343    -0.09500
C1593       C  0.98313980  0.33145961  0.23970499     0.00200
C1594       C  0.98791289  0.31122175  0.21753295     0.00000
C1595       C  0.99837598  0.28421759  0.22588922    -0.13000
C1596       C  0.00001410  0.27593808  0.25467334     0.00500
C1597       C  0.97842660  0.36136610  0.23400052     0.39800
C1598       C  0.00847471  0.24705854  0.26122116     0.36400
C1599       C  0.94139252  0.29173164  0.31264751     0.36100
C1600       C  0.05026517  0.26511279  0.35947238     0.36900
N1601       N  0.97490226  0.38554707  0.23020643    -0.43900
N1602       N  0.01512169  0.22383700  0.26629081    -0.44300
N1603       N  0.07267057  0.25935601  0.36801771    -0.41700
N1604       N  0.91902710  0.29626653  0.30326269    -0.43100
H1605       H  0.95186580  0.27804930  0.36616848     0.13000
H1606       H  0.03929545  0.28085847  0.30655910     0.09500
H1607       H  0.98054732  0.33854200  0.28538570     0.10600
H1608       H  0.00550176  0.26913384  0.20996882     0.16400
C1609       C  0.02272526  0.29357795  0.67487605    -0.01800
C1610       C  0.00034522  0.28460726  0.69299308     0.06800
C1611       C  0.97830618  0.26694202  0.68216929    -0.07800
C1612       C  0.97804918  0.25848658  0.65343592     0.04200
C1613       C  0.99998415  0.26830947  0.63488778    -0.15000
C1614       C  0.02234219  0.28551889  0.64606120    -0.08300
C1615       C  0.00006773  0.29241047  0.72366204     0.05200
C1616       C  0.99717897  0.32111840  0.73163960    -0.09500
C1617       C  0.99571890  0.32890406  0.76059631     0.00200
C1618       C  0.99632466  0.30754007  0.78235098     0.00000
C1619       C  0.00100097  0.27895334  0.77374394    -0.13000
C1620       C  0.00271026  0.27137268  0.74493241     0.00500
C1621       C  0.99394052  0.35905379  0.76720408     0.39800
C1622       C  0.00765528  0.24175824  0.73770349     0.36400
C1623       C  0.04659098  0.31045691  0.68560595     0.36100
C1624       C  0.95555905  0.23907550  0.64396951     0.36900
N1625       N  0.99280522  0.38326026  0.77233622    -0.43900
N1626       N  0.01159351  0.21805502  0.73193105    -0.44300
N1627       N  0.93752600  0.22345145  0.63658646    -0.41700
N1628       N  0.06569706  0.32387398  0.69441256    -0.43100
H1629       H  0.03936418  0.29318855  0.63215153     0.13000
H1630       H  0.96136075  0.25958694  0.69634139     0.09500
H1631       H  0.99588763  0.33746372  0.71514497     0.10600
H1632       H  0.00373838  0.26184602  0.78884763     0.16400
C1633       C  0.91495711  0.40247381  0.43021908    -0.01800
C1634       C  0.89483553  0.39516745  0.40878230     0.06800
C1635       C  0.89163765  0.36646178  0.40058753    -0.07800
C1636       C  0.90780342  0.34494277  0.41342090     0.04200
C1637       C  0.92803526  0.35196495  0.43529511    -0.15000
C1638       C  0.93122915  0.38102794  0.44323982    -0.08300
C1639       C  0.87676302  0.41684654  0.39434237     0.05200
C1640       C  0.88887466  0.43467413  0.37321841    -0.09500
C1641       C  0.87189518  0.45334180  0.35717153     0.00200
C1642       C  0.84223766  0.45467535  0.36246881     0.00000
C1643       C  0.83032680  0.43749346  0.38421276    -0.13000
C1644       C  0.84718756  0.41832171  0.39975408     0.00500
C1645       C  0.88547491  0.47115180  0.33564886     0.39800
C1646       C  0.83364428  0.40003152  0.42088135     0.36400
C1647       C  0.91891342  0.43172506  0.43964733     0.36100
C1648       C  0.90276621  0.31602270  0.40335272     0.36900
N1649       N  0.89633810  0.48532497  0.31830365    -0.43900
N1650       N  0.82277158  0.38522157  0.43768494    -0.44300
N1651       N  0.89845324  0.29292092  0.39521579    -0.41700
N1652       N  0.92225565  0.45510024  0.44738639    -0.43100
H1653       H  0.94629445  0.38715504  0.45993488     0.13000
H1654       H  0.87628491  0.36083272  0.38395229     0.09500
H1655       H  0.91154960  0.43352675  0.36883982     0.10600
H1656       H  0.80767968  0.43859767  0.38864026     0.16400
C1657       C  0.91147038  0.40114963  0.56368027    -0.01800
C1658       C  0.89931661  0.39745816  0.59108766     0.06800
C1659       C  0.90347916  0.37167926  0.60590274    -0.07800
C1660       C  0.91912217  0.34951052  0.59374280     0.04200
C1661       C  0.93100849  0.35294494  0.56607265    -0.15000
C1662       C  0.92716618  0.37906376  0.55150379    -0.08300
C1663       C  0.88066994  0.41937028  0.60395487     0.05200
C1664       C  0.85519787  0.42619338  0.58982571    -0.09500
C1665       C  0.83590172  0.44519020  0.60196876     0.00200
C1666       C  0.84215054  0.45806674  0.62871800     0.00000
C1667       C  0.86782676  0.45141727  0.64271338    -0.13000
C1668       C  0.88694903  0.43215595  0.63068967     0.00500
C1669       C  0.80917936  0.44956414  0.58725344     0.39800
C1670       C  0.91292328  0.42602530  0.64610046     0.36400
C1671       C  0.90828315  0.42745540  0.54770868     0.36100
C1672       C  0.92287795  0.32376217  0.61041063     0.36900
N1673       N  0.78781346  0.45282388  0.57526669    -0.43900
N1674       N  0.93364863  0.42106811  0.65858547    -0.44300
N1675       N  0.92576100  0.30312365  0.62380519    -0.41700
N1676       N  0.90570756  0.44849730  0.53487311    -0.43100
H1677       H  0.93605390  0.38214077  0.53024433     0.13000
H1678       H  0.89401933  0.36868622  0.62692155     0.09500
H1679       H  0.84998255  0.41593527  0.56956414     0.10600
H1680       H  0.87306106  0.46141573  0.66309026     0.16400
C1681       C  0.07611758  0.40273057  0.58498072    -0.01800
C1682       C  0.10590752  0.39916229  0.58801789     0.06800
C1683       C  0.11763889  0.37298533  0.57988745    -0.07800
C1684       C  0.10056498  0.35077945  0.56849944     0.04200
C1685       C  0.07085657  0.35450971  0.56458883    -0.15000
C1686       C  0.05900353  0.38070198  0.57295608    -0.08300
C1687       C  0.12524264  0.42187203  0.60045971     0.05200
C1688       C  0.14225931  0.41516790  0.62426775    -0.09500
C1689       C  0.16040345  0.43578396  0.63704211     0.00200
C1690       C  0.16072944  0.46454657  0.62699448     0.00000
C1691       C  0.14528650  0.47047528  0.60174217    -0.13000
C1692       C  0.12806273  0.44948446  0.58831739     0.00500
C1693       C  0.17957793  0.42601120  0.65912857     0.39800
C1694       C  0.11405693  0.45663705  0.56168866     0.36400
C1695       C  0.06256244  0.42843874  0.59486180     0.36100
C1696       C  0.11448938  0.32475953  0.56013576     0.36900
N1697       N  0.19491793  0.41761162  0.67659560    -0.43900
N1698       N  0.10284704  0.46232408  0.54033019    -0.44300
N1699       N  0.12571276  0.30389569  0.55359010    -0.41700
N1700       N  0.05196179  0.44917644  0.60277597    -0.43100
H1701       H  0.03624341  0.38382352  0.57048799     0.13000
H1702       H  0.14043258  0.36995422  0.58223558     0.09500
H1703       H  0.14148317  0.39355936  0.63287359     0.10600
H1704       H  0.14609995  0.49164720  0.59239516     0.16400
C1705       C  0.09833936  0.36732373  0.39416982    -0.01800
C1706       C  0.10322804  0.39465819  0.40613418     0.06800
C1707       C  0.09066928  0.40144672  0.43242915    -0.07800
C1708       C  0.07378852  0.38132092  0.44720477     0.04200
C1709       C  0.06880512  0.35371090  0.43531588    -0.15000
C1710       C  0.08121791  0.34718828  0.40869748    -0.08300
C1711       C  0.12178129  0.41641404  0.39186509     0.05200
C1712       C  0.11353222  0.42745040  0.36519536    -0.09500
C1713       C  0.12972780  0.44906816  0.35177363     0.00200
C1714       C  0.15461628  0.46019024  0.36531918     0.00000
C1715       C  0.16317379  0.44858153  0.39172448    -0.13000
C1716       C  0.14705492  0.42681669  0.40498455     0.00500
C1717       C  0.11926616  0.46049461  0.32504320     0.39800
C1718       C  0.15680623  0.41529035  0.43198409     0.36400
C1719       C  0.11157434  0.35918155  0.36754988     0.36100
C1720       C  0.06304651  0.38947516  0.47497655     0.36900
N1721       N  0.11079388  0.46942663  0.30354693    -0.43900
N1722       N  0.16427087  0.40584981  0.45364922    -0.44300
N1723       N  0.05460200  0.39628870  0.49719768    -0.41700
N1724       N  0.12236243  0.35286014  0.34624635    -0.43100
H1725       H  0.07769621  0.32621073  0.39920240     0.13000
H1726       H  0.09445764  0.42251839  0.44164658     0.09500
H1727       H  0.09397870  0.41959261  0.35517454     0.10600
H1728       H  0.18245416  0.45661487  0.40211261     0.16400
C1729       C  0.10116596  0.09694389  0.65090721    -0.01800
C1730       C  0.10380423  0.09728877  0.62077720     0.06800
C1731       C  0.12005737  0.07638325  0.60716451    -0.07800
C1732       C  0.13291548  0.05475535  0.62312948     0.04200
C1733       C  0.12913568  0.05377857  0.65308566    -0.15000
C1734       C  0.11411194  0.07536633  0.66680691    -0.08300
C1735       C  0.09017392  0.11959675  0.60318080     0.05200
C1736       C  0.09969646  0.14802522  0.60604017    -0.09500
C1737       C  0.08731564  0.16996989  0.59011157     0.00200
C1738       C  0.06447973  0.16355899  0.57085317     0.00000
C1739       C  0.05531169  0.13475056  0.56796428    -0.13000
C1740       C  0.06802650  0.11288474  0.58372761     0.00500
C1741       C  0.09911989  0.19852571  0.59395551     0.39800
C1742       C  0.05769894  0.08377720  0.57987888     0.36400
C1743       C  0.08474640  0.11804288  0.66589953     0.36100
C1744       C  0.14921612  0.03339200  0.60834004     0.36900
N1745       N  0.10881103  0.22128464  0.59723939    -0.43900
N1746       N  0.04950540  0.06045464  0.57664068    -0.44300
N1747       N  0.16222439  0.01621822  0.59652307    -0.41700
N1748       N  0.07159879  0.13491096  0.67799444    -0.43100
H1749       H  0.11243200  0.07528192  0.68998625     0.13000
H1750       H  0.12256711  0.07694310  0.58405529     0.09500
H1751       H  0.11707357  0.15303948  0.62075615     0.10600
H1752       H  0.03795747  0.12912179  0.55348104     0.16400
C1753       C  0.89920227  0.14515361  0.60799814    -0.01800
C1754       C  0.90668686  0.11620988  0.60519276     0.06800
C1755       C  0.92775126  0.10889565  0.58549496    -0.07800
C1756       C  0.94160944  0.12984237  0.56870448     0.04200
C1757       C  0.93455583  0.15929549  0.57160187    -0.15000
C1758       C  0.91320124  0.16632976  0.59152730    -0.08300
C1759       C  0.89206937  0.09298340  0.62173758     0.05200
C1760       C  0.86952182  0.07762554  0.60877873    -0.09500
C1761       C  0.85502180  0.05567083  0.62359245     0.00200
C1762       C  0.86296731  0.04884522  0.65207559     0.00000
C1763       C  0.88624409  0.06348972  0.66463297    -0.13000
C1764       C  0.90075817  0.08548426  0.64972364     0.00500
C1765       C  0.83251097  0.03999346  0.60884624     0.39800
C1766       C  0.92446855  0.10011741  0.66350332     0.36400
C1767       C  0.87658037  0.15350211  0.62700829     0.36100
C1768       C  0.96272515  0.11991059  0.54870825     0.36900
N1769       N  0.81446294  0.02735080  0.59714880    -0.43900
N1770       N  0.94352291  0.11180531  0.67454711    -0.44300
N1771       N  0.97946884  0.11168264  0.53264330    -0.41700
N1772       N  0.85828506  0.16023124  0.64203930    -0.43100
H1773       H  0.90699389  0.18843381  0.59405018     0.13000
H1774       H  0.93325846  0.08654718  0.58309199     0.09500
H1775       H  0.86321578  0.08287719  0.58702245     0.10600
H1776       H  0.89260828  0.05824781  0.68637172     0.16400
C1777       C  0.91726726  0.11299830  0.42243493    -0.01800
C1778       C  0.91056072  0.11873356  0.39350174     0.06800
C1779       C  0.91759387  0.14562356  0.38190062    -0.07800
C1780       C  0.93105884  0.16676899  0.39856696     0.04200
C1781       C  0.93656795  0.16166409  0.42800336    -0.15000
C1782       C  0.92985274  0.13449614  0.43949416    -0.08300
C1783       C  0.89591321  0.09716190  0.37497940     0.05200
C1784       C  0.86890280  0.08665705  0.38305103    -0.09500
C1785       C  0.85420715  0.06651473  0.36617333     0.00200
C1786       C  0.86601744  0.05740681  0.33988186     0.00000
C1787       C  0.89320217  0.06776366  0.33197020    -0.13000
C1788       C  0.90828409  0.08729671  0.34936771     0.00500
C1789       C  0.82793736  0.05427642  0.37730792     0.39800
C1790       C  0.93682566  0.09614721  0.34115564     0.36400
C1791       C  0.91232045  0.08492131  0.43470786     0.36100
C1792       C  0.94047507  0.19271035  0.38427099     0.36900
N1793       N  0.80692431  0.04423938  0.38605447    -0.43900
N1794       N  0.95976684  0.10330202  0.33490907    -0.44300
N1795       N  0.94822497  0.21320893  0.37243956    -0.41700
N1796       N  0.90843070  0.06230039  0.44428628    -0.43100
H1797       H  0.93452304  0.12998285  0.46182512     0.13000
H1798       H  0.91283281  0.14998540  0.35954846     0.09500
H1799       H  0.85943643  0.09395348  0.40288017     0.10600
H1800       H  0.90277679  0.06056694  0.31226064     0.16400
C1801       C  0.10038617  0.14967258  0.39925821    -0.01800
C1802       C  0.08666420  0.12347333  0.39236617     0.06800
C1803       C  0.06006581  0.11672161  0.40446525    -0.07800
C1804       C  0.04689992  0.13573614  0.42322799     0.04200
C1805       C  0.06042095  0.16238460  0.42987886    -0.15000
C1806       C  0.08722767  0.16884957  0.41777283    -0.08300
C1807       C  0.10050489  0.10212499  0.37386861     0.05200
C1808       C  0.12480625  0.08853508  0.38432070    -0.09500
C1809       C  0.13853826  0.06792557  0.36798366     0.00200
C1810       C  0.12801787  0.06076010  0.34039188     0.00000
C1811       C  0.10335618  0.07407954  0.33012982    -0.13000
C1812       C  0.08963617  0.09477300  0.34657167     0.00500
C1813       C  0.16260789  0.05365703  0.38064386     0.39800
C1814       C  0.06493399  0.10868250  0.33479038     0.36400
C1815       C  0.12769089  0.15759558  0.38703324     0.36100
C1816       C  0.01939269  0.12728413  0.43466727     0.36900
N1817       N  0.18199616  0.04225145  0.39061834    -0.43900
N1818       N  0.04517710  0.11988767  0.32533064    -0.44300
N1819       N  0.99749368  0.11993727  0.44376080    -0.41700
N1820       N  0.14954847  0.16392370  0.37716048    -0.43100
H1821       H  0.09799651  0.18902249  0.42274924     0.13000
H1822       H  0.04968214  0.09637180  0.39937489     0.09500
H1823       H  0.13285567  0.09385408  0.40553665     0.10600
H1824       H  0.09503163  0.06864317  0.30907211     0.16400
C1825       C  0.96595324  0.71567494  0.25656471    -0.01800
C1826       C  0.98781170  0.73251211  0.26911434     0.06800
C1827       C  0.01031735  0.74267950  0.25202457    -0.07800
C1828       C  0.01140001  0.73623271  0.22273865     0.04200
C1829       C  0.98967073  0.71883848  0.20978420    -0.15000
C1830       C  0.96700647  0.70897844  0.22738765    -0.08300
C1831       C  0.98779516  0.73924520  0.30018084     0.05200
C1832       C  0.98929757  0.71663284  0.31994353    -0.09500
C1833       C  0.98903172  0.72196806  0.34940261     0.00200
C1834       C  0.98799429  0.75040516  0.35943208     0.00000
C1835       C  0.98635045  0.77307107  0.33983465    -0.13000
C1836       C  0.98603483  0.76766775  0.31027864     0.00500
C1837       C  0.98933246  0.69792428  0.36897689     0.39800
C1838       C  0.98287802  0.79140268  0.29072068     0.36400
C1839       C  0.94171135  0.70558763  0.27308798     0.36100
C1840       C  0.03514924  0.74803665  0.20660269     0.36900
N1841       N  0.98941648  0.67865121  0.38462128    -0.43900
N1842       N  0.98020147  0.81031943  0.27493210    -0.44300
N1843       N  0.05420029  0.75763283  0.19383161    -0.41700
N1844       N  0.92228546  0.69752365  0.28629674    -0.43100
H1845       H  0.94954043  0.69621764  0.21907845     0.13000
H1846       H  0.02721893  0.75565625  0.26169137     0.09500
H1847       H  0.99049076  0.69475143  0.31228895     0.10600
H1848       H  0.98510239  0.79489632  0.34762968     0.16400
C1849       C  0.96713206  0.73757793  0.67386774    -0.01800
C1850       C  0.99048452  0.72444591  0.68734465     0.06800
C1851       C  0.01408583  0.71697427  0.67078595    -0.07800
C1852       C  0.01523875  0.72339086  0.64136832     0.04200
C1853       C  0.99230176  0.73777191  0.62787148    -0.15000
C1854       C  0.96821186  0.74416668  0.64453979    -0.08300
C1855       C  0.99187648  0.72116939  0.71909011     0.05200
C1856       C  0.99042680  0.69392341  0.73177102    -0.09500
C1857       C  0.99156816  0.69066826  0.76177006     0.00200
C1858       C  0.99473559  0.71504394  0.77991618     0.00000
C1859       C  0.99608989  0.74226490  0.76655550    -0.13000
C1860       C  0.99486269  0.74538012  0.73678931     0.00500
C1861       C  0.98873070  0.66201723  0.77333850     0.39800
C1862       C  0.99733907  0.77389555  0.72479861     0.36400
C1863       C  0.94188089  0.74462917  0.68987712     0.36100
C1864       C  0.04011453  0.71442865  0.62578580     0.36900
N1865       N  0.98616606  0.63914803  0.78273287    -0.43900
N1866       N  0.99933932  0.79672886  0.71522586    -0.44300
N1867       N  0.06016430  0.70717298  0.61352798    -0.41700
N1868       N  0.92171808  0.75022285  0.70284106    -0.43100
H1869       H  0.95018135  0.75470170  0.63476021     0.13000
H1870       H  0.03201350  0.70669707  0.68106613     0.09500
H1871       H  0.98803705  0.67517435  0.71820033     0.10600
H1872       H  0.99812154  0.76178209  0.77859638     0.16400
C1873       C  0.09116423  0.62385250  0.43640983    -0.01800
C1874       C  0.10111193  0.62530217  0.40781248     0.06800
C1875       C  0.09166238  0.64761823  0.39007137    -0.07800
C1876       C  0.07329405  0.66853825  0.40041773     0.04200
C1877       C  0.06304609  0.66670491  0.42881368    -0.15000
C1878       C  0.07207142  0.64418365  0.44641699    -0.08300
C1879       C  0.11997040  0.60298595  0.39556491     0.05200
C1880       C  0.11148693  0.57406441  0.39786079    -0.09500
C1881       C  0.12772582  0.55227882  0.38587121     0.00200
C1882       C  0.15312388  0.55922722  0.37095187     0.00000
C1883       C  0.16154336  0.58814253  0.36839330    -0.13000
C1884       C  0.14530049  0.60995249  0.38041730     0.00500
C1885       C  0.11655567  0.52334016  0.38780384     0.39800
C1886       C  0.15510115  0.63922076  0.37657321     0.36400
C1887       C  0.10062847  0.60224138  0.45631266     0.36100
C1888       C  0.06489408  0.69113027  0.38115383     0.36900
N1889       N  0.10670917  0.50050702  0.38974976    -0.43900
N1890       N  0.16287434  0.66263189  0.37298123    -0.44300
N1891       N  0.05851020  0.70919438  0.36550360    -0.41700
N1892       N  0.10792013  0.58502147  0.47250153    -0.43100
H1893       H  0.06477742  0.64289478  0.46845895     0.13000
H1894       H  0.09840671  0.64856360  0.36786720     0.09500
H1895       H  0.09154954  0.56847971  0.40843002     0.10600
H1896       H  0.18095782  0.59373304  0.35689111     0.16400
C1897       C  0.10570648  0.56778254  0.59749302    -0.01800
C1898       C  0.11104605  0.59768228  0.59772604     0.06800
C1899       C  0.13447785  0.60853787  0.61348688    -0.07800
C1900       C  0.15285616  0.59018350  0.62810099     0.04200
C1901       C  0.14779125  0.56032892  0.62740631    -0.15000
C1902       C  0.12401105  0.54945235  0.61234384    -0.08300
C1903       C  0.09294279  0.61806056  0.58138954     0.05200
C1904       C  0.06363429  0.61982016  0.58755779    -0.09500
C1905       C  0.04647084  0.63979642  0.57343335     0.00200
C1906       C  0.05873445  0.65858051  0.55300826     0.00000
C1907       C  0.08781267  0.65667459  0.54661215    -0.13000
C1908       C  0.10489167  0.63657687  0.56042198     0.00500
C1909       C  0.01671919  0.64166527  0.58116898     0.39800
C1910       C  0.13463216  0.63533001  0.55257523     0.36400
C1911       C  0.08189157  0.55533708  0.58186920     0.36100
C1912       C  0.17719531  0.60239163  0.64309184     0.36900
N1913       N  0.99289756  0.64334786  0.58734724    -0.43900
N1914       N  0.15849534  0.63444961  0.54636444    -0.44300
N1915       N  0.19677163  0.61209363  0.65505783    -0.41700
N1916       N  0.06274664  0.54531213  0.56946533    -0.43100
H1917       H  0.11935910  0.52666026  0.61264198     0.13000
H1918       H  0.13855809  0.63147959  0.61416245     0.09500
H1919       H  0.05430316  0.60600836  0.60387478     0.10600
H1920       H  0.09722248  0.67103955  0.53079402     0.16400
C1921       C  0.89111186  0.64541662  0.59769133    -0.01800
C1922       C  0.88928184  0.61685614  0.58809832     0.06800
C1923       C  0.90432518  0.60897010  0.56350494    -0.07800
C1924       C  0.92104497  0.62897334  0.54832969     0.04200
C1925       C  0.92233405  0.65801691  0.55736352    -0.15000
C1926       C  0.90741854  0.66559427  0.58238084    -0.08300
C1927       C  0.87157806  0.59488938  0.60316575     0.05200
C1928       C  0.84203409  0.59892717  0.60568745    -0.09500
C1929       C  0.82456763  0.57830291  0.61908321     0.00200
C1930       C  0.83670392  0.55307226  0.62977544     0.00000
C1931       C  0.86610109  0.54897380  0.62737860    -0.13000
C1932       C  0.88363289  0.56968828  0.61432090     0.00500
C1933       C  0.79434624  0.58334909  0.62140154     0.39800
C1934       C  0.91393272  0.56476113  0.61298042     0.36400
C1935       C  0.87679405  0.65447490  0.62343452     0.36100
C1936       C  0.93640126  0.61860247  0.52376918     0.36900
N1937       N  0.77013039  0.58748306  0.62315834    -0.43900
N1938       N  0.93820423  0.56074547  0.61184731    -0.44300
N1939       N  0.94877709  0.60965269  0.50440763    -0.41700
N1940       N  0.86525125  0.66174543  0.64400969    -0.43100
H1941       H  0.90851939  0.68743188  0.59026895     0.13000
H1942       H  0.90289333  0.58697293  0.55605341     0.09500
H1943       H  0.83260308  0.61811564  0.59693842     0.10600
H1944       H  0.87534178  0.52951677  0.63577008     0.16400
C1945       C  0.89744375  0.61606641  0.42984342    -0.01800
C1946       C  0.88773893  0.61787619  0.40132005     0.06800
C1947       C  0.89269754  0.64321304  0.38568651    -0.07800
C1948       C  0.90752084  0.66653908  0.39798824     0.04200
C1949       C  0.91796469  0.66439503  0.42638738    -0.15000
C1950       C  0.91239190  0.63914824  0.44200652    -0.08300
C1951       C  0.87175896  0.59377072  0.38777527     0.05200
C1952       C  0.84537932  0.58514436  0.39937376    -0.09500
C1953       C  0.82941434  0.56259586  0.38723576     0.00200
C1954       C  0.83965537  0.54861360  0.36261445     0.00000
C1955       C  0.86642747  0.55692393  0.35143692    -0.13000
C1956       C  0.88249795  0.57923226  0.36378900     0.00500
C1957       C  0.80241172  0.55501788  0.40020363     0.39800
C1958       C  0.91010135  0.58645088  0.35177975     0.36400
C1959       C  0.89269686  0.59059690  0.44695230     0.36100
C1960       C  0.91211247  0.69189613  0.38071922     0.36900
N1961       N  0.78101880  0.54917757  0.41129040    -0.43900
N1962       N  0.93221063  0.59213092  0.34208908    -0.44300
N1963       N  0.91544614  0.71208722  0.36659599    -0.41700
N1964       N  0.88873786  0.57024226  0.46068190    -0.43100
H1965       H  0.91965428  0.63749177  0.46399802     0.13000
H1966       H  0.88486701  0.64475374  0.36383114     0.09500
H1967       H  0.83714234  0.59628116  0.41790838     0.10600
H1968       H  0.87486468  0.54590073  0.33293485     0.16400
C1969       C  0.12361115  0.93645852  0.38179555    -0.01800
C1970       C  0.09638272  0.92498334  0.37468921     0.06800
C1971       C  0.08283836  0.93494262  0.34978050    -0.07800
C1972       C  0.09625274  0.95512895  0.33157818     0.04200
C1973       C  0.12394561  0.96601021  0.33819891    -0.15000
C1974       C  0.13703726  0.95658075  0.36367013    -0.08300
C1975       C  0.08205786  0.90197433  0.39231757     0.05200
C1976       C  0.05561582  0.90715539  0.40522605    -0.09500
C1977       C  0.04120338  0.88580096  0.42127822     0.00200
C1978       C  0.05342638  0.85840625  0.42512087     0.00000
C1979       C  0.07974201  0.85324807  0.41164118    -0.13000
C1980       C  0.09380404  0.87448594  0.39521762     0.00500
C1981       C  0.01322248  0.89234467  0.43208088     0.39800
C1982       C  0.11965042  0.86722933  0.38031011     0.36400
C1983       C  0.13809398  0.92834925  0.40786100     0.36100
C1984       C  0.08127774  0.96322600  0.30583488     0.36900
N1985       N  0.99074300  0.89788340  0.44040184    -0.43900
N1986       N  0.14029671  0.86175093  0.36808216    -0.44300
N1987       N  0.06865401  0.96950970  0.28547924    -0.41700
N1988       N  0.14989565  0.92194122  0.42867611    -0.43100
H1989       H  0.15780729  0.96526882  0.36976853     0.13000
H1990       H  0.06188864  0.92634812  0.34415178     0.09500
H1991       H  0.04600985  0.92795014  0.40246557     0.10600
H1992       H  0.08938683  0.83240894  0.41373746     0.16400
C1993       C  0.92293499  0.87613784  0.37992686    -0.01800
C1994       C  0.90822424  0.89918764  0.39215791     0.06800
C1995       C  0.90519759  0.90062876  0.42205287    -0.07800
C1996       C  0.91653071  0.87949959  0.43980101     0.04200
C1997       C  0.93021923  0.85588577  0.42741511    -0.15000
C1998       C  0.93335930  0.85451938  0.39757159    -0.08300
C1999       C  0.89438195  0.92113785  0.37421711     0.05200
C2000       C  0.87254331  0.91240192  0.35539046    -0.09500
C2001       C  0.85740509  0.93244270  0.33943701     0.00200
C2002       C  0.86420173  0.96197747  0.34217297     0.00000
C2003       C  0.88631151  0.97064845  0.36082935    -0.13000
C2004       C  0.90130592  0.95054030  0.37690969     0.00500
C2005       C  0.83534133  0.92191738  0.32025079     0.39800
C2006       C  0.92371446  0.96051450  0.39598001     0.36400
C2007       C  0.92850390  0.87460283  0.34953678     0.36100
C2008       C  0.91334753  0.88235942  0.47045900     0.36900
N2009       N  0.81741541  0.91348439  0.30516240    -0.43900
N2010       N  0.94157679  0.96840370  0.41142043    -0.44300
N2011       N  0.91084685  0.88501361  0.49499207    -0.41700
N2012       N  0.93336169  0.87314718  0.32527219    -0.43100
H2013       H  0.94467053  0.83682472  0.38806881     0.13000
H2014       H  0.89373798  0.91823013  0.43151223     0.09500
H2015       H  0.86700496  0.88980269  0.35351735     0.10600
H2016       H  0.89161401  0.99324488  0.36321323     0.16400
C2017       C  0.88390332  0.86174013  0.59617269    -0.01800
C2018       C  0.89644522  0.88884532  0.60204588     0.06800
C2019       C  0.92379838  0.89522292  0.59143571    -0.07800
C2020       C  0.93855163  0.87548659  0.57478819     0.04200
C2021       C  0.92603107  0.84834246  0.56850949    -0.15000
C2022       C  0.89869122  0.84179890  0.57957716    -0.08300
C2023       C  0.88173744  0.91097816  0.61930401     0.05200
C2024       C  0.87462265  0.90514251  0.64802023    -0.09500
C2025       C  0.86209156  0.92607290  0.66520881     0.00200
C2026       C  0.85669552  0.95336732  0.65368833     0.00000
C2027       C  0.86377268  0.95927915  0.62513180    -0.13000
C2028       C  0.87607732  0.93837290  0.60787321     0.00500
C2029       C  0.85546557  0.91928475  0.69468110     0.39800
C2030       C  0.88211959  0.94538110  0.57832012     0.36400
C2031       C  0.85570989  0.85417916  0.60649216     0.36100
C2032       C  0.96687670  0.88355389  0.56524580     0.36900
N2033       N  0.85034003  0.91379681  0.71834370    -0.43900
N2034       N  0.88693672  0.95108599  0.55464729    -0.44300
N2035       N  0.98954500  0.89004304  0.55752128    -0.41700
N2036       N  0.83316794  0.84824883  0.61497420    -0.43100
H2037       H  0.88863754  0.82119160  0.57495951     0.13000
H2038       H  0.93377831  0.91580791  0.59635111     0.09500
H2039       H  0.87924563  0.88433565  0.65711655     0.10600
H2040       H  0.85937012  0.98022540  0.61621944     0.16400
C2041       C  0.08937266  0.88765587  0.57464176    -0.01800
C2042       C  0.08443597  0.88759681  0.60448035     0.06800
C2043       C  0.06576277  0.86710043  0.61648636    -0.07800
C2044       C  0.05171219  0.84696042  0.59904733     0.04200
C2045       C  0.05649003  0.84722493  0.56921405    -0.15000
C2046       C  0.07531322  0.86753344  0.55721416    -0.08300
C2047       C  0.09696357  0.91021360  0.62298430     0.05200
C2048       C  0.08834766  0.93840072  0.61863310    -0.09500
C2049       C  0.10091641  0.96107777  0.63386763     0.00200
C2050       C  0.12263260  0.95558954  0.65429843     0.00000
C2051       C  0.13032569  0.92697741  0.65937008    -0.13000
C2052       C  0.11774065  0.90437493  0.64391023     0.00500
C2053       C  0.09129015  0.98942122  0.62693640     0.39800
C2054       C  0.12705253  0.87554153  0.64928542     0.36400
C2055       C  0.10875948  0.90822397  0.56157342     0.36100
C2056       C  0.03125320  0.82728596  0.61187103     0.36900
N2057       N  0.08247133  0.01165499  0.62099971    -0.43900
N2058       N  0.13452468  0.85244591  0.65366344    -0.44300
N2059       N  0.01464342  0.81161463  0.62190541    -0.41700
N2060       N  0.12426301  0.92486436  0.55132012    -0.43100
H2061       H  0.07906746  0.86758211  0.53426897     0.13000
H2062       H  0.06158132  0.86739093  0.63934610     0.09500
H2063       H  0.07203426  0.94272570  0.60269776     0.10600
H2064       H  0.14634061  0.92218327  0.67542345     0.16400
C2065       C  0.22589396  0.80397501  0.46835752    -0.01800
C2066       C  0.21328972  0.78937653  0.49165353     0.06800
C2067       C  0.23019924  0.78171653  0.51509259    -0.07800
C2068       C  0.25929862  0.78871165  0.51585453     0.04200
C2069       C  0.27209901  0.80459046  0.49302393    -0.15000
C2070       C  0.25486583  0.81161866  0.46927477    -0.08300
C2071       C  0.18251943  0.78171046  0.49202880     0.05200
C2072       C  0.17149859  0.76254440  0.47146152    -0.09500
C2073       C  0.14239790  0.75519283  0.47092600     0.00200
C2074       C  0.12400960  0.76675177  0.49172008     0.00000
C2075       C  0.13526360  0.78545930  0.51259627    -0.13000
C2076       C  0.16417716  0.79313878  0.51280998     0.00500
C2077       C  0.13223870  0.73544604  0.44918501     0.39800
C2078       C  0.17425732  0.81354808  0.53396986     0.36400
C2079       C  0.20962145  0.81136966  0.44313397     0.36100
C2080       C  0.27559149  0.77836533  0.54002044     0.36900
N2081       N  0.12441355  0.71964294  0.43160846    -0.43900
N2082       N  0.18216567  0.82991056  0.55098588    -0.44300
N2083       N  0.28870355  0.76994239  0.55924314    -0.41700
N2084       N  0.19688026  0.81718834  0.42270563    -0.43100
H2085       H  0.26359774  0.82235771  0.45073851     0.13000
H2086       H  0.22063116  0.76979972  0.53272023     0.09500
H2087       H  0.18569609  0.75341382  0.45573049     0.10600
H2088       H  0.12121410  0.79489331  0.52829483     0.16400
C2089       C  0.37118450  0.70992061  0.50079182    -0.01800
C2090       C  0.39418653  0.70823725  0.48156196     0.06800
C2091       C  0.40494006  0.73356045  0.46890626    -0.07800
C2092       C  0.39211367  0.76011904  0.47399894     0.04200
C2093       C  0.36834480  0.76166897  0.49251419    -0.15000
C2094       C  0.35885866  0.73638477  0.50640036    -0.08300
C2095       C  0.40806514  0.68031470  0.47598766     0.05200
C2096       C  0.39299123  0.65827176  0.46138725    -0.09500
C2097       C  0.40380572  0.63031383  0.45986662     0.00200
C2098       C  0.43011607  0.62425832  0.47302632     0.00000
C2099       C  0.44542451  0.64666679  0.48666334    -0.13000
C2100       C  0.43480813  0.67435776  0.48818116     0.00500
C2101       C  0.38647528  0.60776172  0.44722966     0.39800
C2102       C  0.45076074  0.69563790  0.50441899     0.36400
C2103       C  0.35973465  0.68464267  0.51489091     0.36100
C2104       C  0.40290997  0.78489900  0.45873375     0.36900
N2105       N  0.37256993  0.58951813  0.43735935    -0.43900
N2106       N  0.46360590  0.71248957  0.51759879    -0.44300
N2107       N  0.41193295  0.80458897  0.44641090    -0.41700
N2108       N  0.35059276  0.66426616  0.52596937    -0.43100
H2109       H  0.34094914  0.73712032  0.52105300     0.13000
H2110       H  0.42299940  0.73243404  0.45448698     0.09500
H2111       H  0.37214889  0.66261842  0.45237195     0.10600
H2112       H  0.46530970  0.64214854  0.49756975     0.16400
C2113       C  0.17449225  0.22828157  0.52276449    -0.01800
C2114       C  0.19188466  0.23725076  0.49966560     0.06800
C2115       C  0.17947364  0.25210007  0.47673433    -0.07800
C2116       C  0.15030106  0.25823017  0.47660139     0.04200
C2117       C  0.13269226  0.24872192  0.49949993    -0.15000
C2118       C  0.14523982  0.23384895  0.52240401    -0.08300
C2119       C  0.22304581  0.23147102  0.49921482     0.05200
C2120       C  0.23223683  0.20313618  0.50096543    -0.09500
C2121       C  0.26134059  0.19675370  0.50137026     0.00200
C2122       C  0.28240261  0.21901646  0.49932552     0.00000
C2123       C  0.27272023  0.24750310  0.49769496    -0.13000
C2124       C  0.24362149  0.25376570  0.49753355     0.00500
C2125       C  0.26867049  0.16697336  0.50419786     0.39800
C2126       C  0.23552395  0.28345760  0.49602081     0.36400
C2127       C  0.18631993  0.21404007  0.54749076     0.36100
C2128       C  0.13940536  0.27530320  0.45327020     0.36900
N2129       N  0.27403821  0.14300395  0.50669150    -0.43900
N2130       N  0.22920979  0.30727107  0.49458667    -0.44300
N2131       N  0.13070266  0.28912679  0.43468059    -0.41700
N2132       N  0.19591985  0.20268726  0.56727644    -0.43100
H2133       H  0.13212505  0.22631483  0.54008108     0.13000
H2134       H  0.19271512  0.25912860  0.45893093     0.09500
H2135       H  0.21649123  0.18582853  0.50213397     0.10600
H2136       H  0.28726658  0.26553929  0.49658372     0.16400
C2137       C  0.46600567  0.33372210  0.47952889    -0.01800
C2138       C  0.43667828  0.32773743  0.47552736     0.06800
C2139       C  0.41856190  0.34969300  0.46695190    -0.07800
C2140       C  0.42875007  0.37787743  0.46447768     0.04200
C2141       C  0.45784971  0.38432342  0.46986630    -0.15000
C2142       C  0.47655720  0.36184187  0.47578283    -0.08300
C2143       C  0.42337747  0.29962006  0.48260126     0.05200
C2144       C  0.40810538  0.29719545  0.50829161    -0.09500
C2145       C  0.39004434  0.27357927  0.51337377     0.00200
C2146       C  0.38713547  0.25182316  0.49251233     0.00000
C2147       C  0.40421610  0.25314416  0.46784021    -0.13000
C2148       C  0.42213287  0.27702814  0.46263628     0.00500
C2149       C  0.37424319  0.27239319  0.53990397     0.39800
C2150       C  0.43760361  0.27895472  0.43596497     0.36400
C2151       C  0.48494600  0.31192143  0.48982771     0.36100
C2152       C  0.40862117  0.39992461  0.45747653     0.36900
N2153       N  0.36165344  0.27139965  0.56120141    -0.43900
N2154       N  0.45009329  0.28082664  0.41465409    -0.44300
N2155       N  0.39227674  0.41741514  0.45200173    -0.41700
N2156       N  0.49986416  0.29438133  0.49845736    -0.43100
H2157       H  0.49895130  0.36659009  0.47975681     0.13000
H2158       H  0.39601454  0.34499128  0.46365481     0.09500
H2159       H  0.40925280  0.31450696  0.52378003     0.10600
H2160       H  0.40229972  0.23647495  0.45184980     0.16400
C2161       C  0.74067763  0.33087859  0.99688346    -0.01800
C2162       C  0.71220317  0.32028744  0.99775800     0.06800
C2163       C  0.68975544  0.33977478  0.99720803    -0.07800
C2164       C  0.69515451  0.36926293  0.99519134     0.04200
C2165       C  0.72353512  0.37976997  0.99389954    -0.15000
C2166       C  0.74608695  0.36048673  0.99493136    -0.08300
C2167       C  0.70510956  0.28907685  0.99856845     0.05200
C2168       C  0.71436297  0.27233778  0.02165802    -0.09500
C2169       C  0.70794971  0.24286772  0.02295945     0.00200
C2170       C  0.69220496  0.22921400  0.00051808     0.00000
C2171       C  0.68242073  0.24663595  0.97784563    -0.13000
C2172       C  0.68843549  0.27603732  0.97687954     0.00500
C2173       C  0.71797634  0.22719920  0.04764201     0.39800
C2174       C  0.67764434  0.29220028  0.95282715     0.36400
C2175       C  0.76465941  0.31190373  0.99762106     0.36100
C2176       C  0.67116009  0.38824607  0.99486942     0.36900
N2177       N  0.72561265  0.21462602  0.06756557    -0.43900
N2178       N  0.66861426  0.30501153  0.93367831    -0.44300
N2179       N  0.65166334  0.40311103  0.99474361    -0.41700
N2180       N  0.78399708  0.29684446  0.99838074    -0.43100
H2181       H  0.76793097  0.36860213  0.99434001     0.13000
H2182       H  0.66786436  0.33186061  0.99834948     0.09500
H2183       H  0.72657858  0.28239158  0.03882713     0.10600
H2184       H  0.67079990  0.23791587  0.95987118     0.16400
C2185       C  0.83415746  0.07650706  0.96407900    -0.01800
C2186       C  0.82899104  0.10537335  0.97093386     0.06800
C2187       C  0.85237311  0.12435614  0.97493320    -0.07800
C2188       C  0.88048631  0.11465353  0.97353878     0.04200
C2189       C  0.88549155  0.08553085  0.96814241    -0.15000
C2190       C  0.86225562  0.06682127  0.96285787    -0.08300
C2191       C  0.79948844  0.11601423  0.97505366     0.05200
C2192       C  0.78200609  0.10387166  0.99655832    -0.09500
C2193       C  0.75485307  0.11478523  0.00232158     0.00200
C2194       C  0.74505240  0.13858763  0.98670263     0.00000
C2195       C  0.76214064  0.14984334  0.96445464    -0.13000
C2196       C  0.78901637  0.13883842  0.95855313     0.00500
C2197       C  0.73811831  0.10194607  0.02504386     0.39800
C2198       C  0.80540495  0.15125442  0.93532404     0.36400
C2199       C  0.81094806  0.05639677  0.95872999     0.36100
C2200       C  0.90383618  0.13456684  0.97899177     0.36900
N2201       N  0.72468195  0.09143293  0.04313767    -0.43900
N2202       N  0.81857071  0.16118996  0.91672702    -0.44300
N2203       N  0.92259495  0.15051462  0.98320764    -0.41700
N2204       N  0.79221723  0.04042437  0.95449171    -0.43100
H2205       H  0.86604040  0.04425226  0.95920726     0.13000
H2206       H  0.84861997  0.14660024  0.98016396     0.09500
H2207       H  0.78990378  0.08626638  0.00934821     0.10600
H2208       H  0.75454692  0.16764991  0.95174716     0.16400
C2209       C  0.27450072  0.33589981  0.97715444    -0.01800
C2210       C  0.27017696  0.31835703  0.00140217     0.06800
C2211       C  0.25701020  0.32994658  0.02561869    -0.07800
C2212       C  0.24823811  0.35859344  0.02605852     0.04200
C2213       C  0.25251285  0.37648699  0.00171789    -0.15000
C2214       C  0.26568870  0.36453180  0.97741375    -0.08300
C2215       C  0.27696502  0.28721552  0.00093436     0.05200
C2216       C  0.30527451  0.27831650  0.00359710    -0.09500
C2217       C  0.31209833  0.24908442  0.00245891     0.00200
C2218       C  0.29034757  0.22771267  0.99859719     0.00000
C2219       C  0.26191184  0.23724301  0.99583761    -0.13000
C2220       C  0.25527341  0.26640195  0.99693071     0.00500
C2221       C  0.34177671  0.24164953  0.00523796     0.39800
C2222       C  0.22594840  0.27472062  0.99303033     0.36400
C2223       C  0.28753556  0.32466443  0.95160559     0.36100
C2224       C  0.23423685  0.36858801  0.05159938     0.36900
N2225       N  0.36549622  0.23546993  0.00744128    -0.43900
N2226       N  0.20258438  0.28171451  0.98980424    -0.44300
N2227       N  0.22303920  0.37655199  0.07210705    -0.41700
N2228       N  0.29800418  0.31535833  0.93128470    -0.43100
H2229       H  0.26956747  0.37766723  0.95858042     0.13000
H2230       H  0.25323764  0.31637208  0.04417560     0.09500
H2231       H  0.32213328  0.29430794  0.00647728     0.10600
H2232       H  0.24426228  0.22256602  0.99253629     0.16400
C2233       C  0.17318882  0.04888673  0.98520601    -0.01800
C2234       C  0.17929867  0.07821111  0.98132893     0.06800
C2235       C  0.15729067  0.09701321  0.97474479    -0.07800
C2236       C  0.12900207  0.08718714  0.97344268     0.04200
C2237       C  0.12244161  0.05814141  0.97931969    -0.15000
C2238       C  0.14476966  0.03899825  0.98425535    -0.08300
C2239       C  0.20815699  0.09040029  0.98598471     0.05200
C2240       C  0.22692188  0.09276869  0.96277076    -0.09500
C2241       C  0.25230584  0.10890083  0.96524756     0.00200
C2242       C  0.25891510  0.12278387  0.99136315     0.00000
C2243       C  0.24100889  0.11868007  0.01507954    -0.13000
C2244       C  0.21574811  0.10255950  0.01260696     0.00500
C2245       C  0.26989249  0.11246574  0.94012589     0.39800
C2246       C  0.19716266  0.10009214  0.03716930     0.36400
C2247       C  0.19581393  0.02913274  0.99112942     0.36100
C2248       C  0.10717474  0.10717443  0.96545063     0.36900
N2249       N  0.28344869  0.11481808  0.91953558    -0.43900
N2250       N  0.18228881  0.09811998  0.05686560    -0.44300
N2251       N  0.08977990  0.12313712  0.95867943    -0.41700
N2252       N  0.21446308  0.01387613  0.99578500    -0.43100
H2253       H  0.13996413  0.01668545  0.98862193     0.13000
H2254       H  0.16222923  0.11954178  0.97118857     0.09500
H2255       H  0.22098538  0.08327765  0.94233189     0.10600
H2256       H  0.24603570  0.12944647  0.03512908     0.16400
C2257       C  0.74824537  0.77059280  0.49430831    -0.01800
C2258       C  0.76881614  0.79252563  0.49831930     0.06800
C2259       C  0.75991414  0.82075408  0.50195073    -0.07800
C2260       C  0.73082811  0.82732718  0.50177051     0.04200
C2261       C  0.70974267  0.80535402  0.49785072    -0.15000
C2262       C  0.71929688  0.77710369  0.49351228    -0.08300
C2263       C  0.79969149  0.78622201  0.49746451     0.05200
C2264       C  0.81095018  0.77481468  0.47222572    -0.09500
C2265       C  0.83941754  0.76653346  0.47078238     0.00200
C2266       C  0.85740939  0.76978630  0.49512558     0.00000
C2267       C  0.84606398  0.78177441  0.52024482    -0.13000
C2268       C  0.81755245  0.79003775  0.52154649     0.00500
C2269       C  0.84908272  0.75433443  0.44413919     0.39800
C2270       C  0.80700974  0.80182998  0.54798640     0.36400
C2271       C  0.75635225  0.74094816  0.49174473     0.36100
C2272       C  0.72329096  0.85693399  0.50564997     0.36900
N2273       N  0.85666543  0.74468151  0.42268347    -0.43900
N2274       N  0.79861353  0.81132469  0.56918440    -0.44300
N2275       N  0.71708029  0.88059201  0.50887098    -0.41700
N2276       N  0.76296311  0.71725567  0.48987879    -0.43100
H2277       H  0.70483715  0.75946769  0.48927126     0.13000
H2278       H  0.77579023  0.83775136  0.50473321     0.09500
H2279       H  0.79721549  0.77204029  0.45361171     0.10600
H2280       H  0.85956961  0.78511298  0.53892159     0.16400
C2281       C  0.56442888  0.74959222  0.51956121    -0.01800
C2282       C  0.56940131  0.72369179  0.50510754     0.06800
C2283       C  0.59031097  0.72300680  0.48369831    -0.07800
C2284       C  0.60786031  0.74681953  0.47830658     0.04200
C2285       C  0.60534332  0.77166652  0.49532628    -0.15000
C2286       C  0.58223685  0.77349423  0.51430430    -0.08300
C2287       C  0.55305833  0.69685343  0.51081581     0.05200
C2288       C  0.53758228  0.68479883  0.48796427    -0.09500
C2289       C  0.52785035  0.65644542  0.48909289     0.00200
C2290       C  0.53287216  0.63980375  0.51377500     0.00000
C2291       C  0.54651170  0.65232377  0.53758891    -0.13000
C2292       C  0.55687327  0.68073569  0.53621711     0.00500
C2293       C  0.51383510  0.64446349  0.46408321     0.39800
C2294       C  0.57300176  0.69208301  0.56023071     0.36400
C2295       C  0.54143097  0.75207738  0.53985000     0.36100
C2296       C  0.62794216  0.74528944  0.45491052     0.36900
N2297       N  0.50245524  0.63488308  0.44412947    -0.43900
N2298       N  0.58582492  0.70106377  0.57959410    -0.44300
N2299       N  0.64395274  0.74405718  0.43612186    -0.41700
N2300       N  0.52298838  0.75419976  0.55611126    -0.43100
H2301       H  0.57879791  0.79309192  0.52602740     0.13000
H2302       H  0.59326347  0.70352992  0.47146181     0.09500
H2303       H  0.53468968  0.69708113  0.46842823     0.10600
H2304       H  0.55048035  0.63946691  0.55652823     0.16400
C2305       C  0.73782364  0.69465998  0.02007953    -0.01800
C2306       C  0.72240178  0.70882046  0.99845634     0.06800
C2307       C  0.71325939  0.69328780  0.97434257    -0.07800
C2308       C  0.71827507  0.66384907  0.97191287     0.04200
C2309       C  0.73276206  0.64912987  0.99414560    -0.15000
C2310       C  0.74261339  0.66511871  0.01794600    -0.08300
C2311       C  0.71498975  0.73967077  0.00065044     0.05200
C2312       C  0.72689646  0.75932494  0.98117147    -0.09500
C2313       C  0.71960112  0.78833836  0.98175067     0.00200
C2314       C  0.69940870  0.79847047  0.00192796     0.00000
C2315       C  0.68761113  0.77833053  0.02145934    -0.13000
C2316       C  0.69528665  0.74942050  0.02101846     0.00500
C2317       C  0.73353178  0.80729092  0.96140363     0.39800
C2318       C  0.68213910  0.72997526  0.04141281     0.36400
C2319       C  0.74948374  0.71022935  0.04428398     0.36100
C2320       C  0.70730483  0.64950849  0.94668598     0.36900
N2321       N  0.74483185  0.82261685  0.94534418    -0.43900
N2322       N  0.67172493  0.71446623  0.05788128    -0.44300
N2323       N  0.69845396  0.63857914  0.92617187    -0.41700
N2324       N  0.75890999  0.72291013  0.06352177    -0.43100
H2325       H  0.75417811  0.65453538  0.03499708     0.13000
H2326       H  0.70159472  0.70417102  0.95753402     0.09500
H2327       H  0.74209969  0.75193510  0.96545209     0.10600
H2328       H  0.67215037  0.78442214  0.03722311     0.16400
C2329       C  0.83514953  0.93143964  0.00859670    -0.01800
C2330       C  0.81181663  0.94891929  0.01475142     0.06800
C2331       C  0.81665010  0.97804586  0.02080536    -0.07800
C2332       C  0.84445623  0.98999248  0.02036212     0.04200
C2333       C  0.86795792  0.97255330  0.01361644    -0.15000
C2334       C  0.86275888  0.94322187  0.00813793    -0.08300
C2335       C  0.78239973  0.93658624  0.01427867     0.05200
C2336       C  0.77318370  0.92013239  0.03774495    -0.09500
C2337       C  0.74870293  0.90257348  0.03572491     0.00200
C2338       C  0.73295360  0.90140897  0.00983490     0.00000
C2339       C  0.74097392  0.91952409  0.98710027    -0.13000
C2340       C  0.76568863  0.93691002  0.98907139     0.00500
C2341       C  0.74074187  0.88525268  0.06021174     0.39800
C2342       C  0.77481091  0.95322341  0.96431383     0.36400
C2343       C  0.83111021  0.90137211  0.00201162     0.36100
C2344       C  0.84795872  0.02026791  0.02589972     0.36900
N2345       N  0.73454199  0.87144793  0.07994369    -0.43900
N2346       N  0.78238768  0.96627283  0.94454602    -0.44300
N2347       N  0.85069907  0.04453352  0.03045859    -0.41700
N2348       N  0.82770241  0.87732862  0.99671799    -0.43100
H2349       H  0.88035498  0.92931031  0.00316586     0.13000
H2350       H  0.79864171  0.99150303  0.02552217     0.09500
H2351       H  0.78605166  0.91980728  0.05712191     0.10600
H2352       H  0.72907186  0.91865252  0.96714516     0.16400
C2353       C  0.26349293  0.69294639  0.02056101    -0.01800
C2354       C  0.27834271  0.70436390  0.99678971     0.06800
C2355       C  0.28570250  0.68626875  0.97426569    -0.07800
C2356       C  0.27824430  0.65709158  0.97487254     0.04200
C2357       C  0.26271447  0.64544052  0.99845224    -0.15000
C2358       C  0.25585603  0.66372237  0.02128043    -0.08300
C2359       C  0.28601791  0.73527617  0.99481701     0.05200
C2360       C  0.31159095  0.74542408  0.00711641    -0.09500
C2361       C  0.31871410  0.77482109  0.00711392     0.00200
C2362       C  0.29925951  0.79484730  0.99559258     0.00000
C2363       C  0.27546653  0.78377696  0.98019035    -0.13000
C2364       C  0.26842803  0.75456537  0.98025263     0.00500
C2365       C  0.34702067  0.78288793  0.01667022     0.39800
C2366       C  0.24261264  0.74508238  0.96582867     0.36400
C2367       C  0.25580711  0.71092949  0.04436101     0.36100
C2368       C  0.28768356  0.63978350  0.95120727     0.36900
N2369       N  0.36991368  0.78900725  0.02416760    -0.43900
N2370       N  0.22187003  0.73780608  0.95417602    -0.44300
N2371       N  0.29528699  0.62630306  0.93198445    -0.41700
N2372       N  0.24973246  0.72539765  0.06343790    -0.43100
H2373       H  0.24424284  0.65527435  0.03960773     0.13000
H2374       H  0.29741244  0.69503201  0.95612449     0.09500
H2375       H  0.32610792  0.73024249  0.01663781     0.10600
H2376       H  0.26135407  0.79829506  0.96910963     0.16400
C2377       C  0.15401279  0.94111755  0.00625175    -0.01800
C2378       C  0.15925689  0.91860983  0.02540604     0.06800
C2379       C  0.13710105  0.90868220  0.04341780    -0.07800
C2380       C  0.10979366  0.92101011  0.04230873     0.04200
C2381       C  0.10454471  0.94356629  0.02278069    -0.15000
C2382       C  0.12718040  0.95331933  0.00522230    -0.08300
C2383       C  0.18717325  0.90407271  0.02433632     0.05200
C2384       C  0.21167052  0.91831279  0.03493067    -0.09500
C2385       C  0.23915014  0.90801692  0.02948634     0.00200
C2386       C  0.24246622  0.88279479  0.01302913     0.00000
C2387       C  0.21759648  0.86896473  0.00224477    -0.13000
C2388       C  0.19034086  0.87914117  0.00790471     0.00500
C2389       C  0.26301832  0.92428036  0.04090401     0.39800
C2390       C  0.16598537  0.86442665  0.99529233     0.36400
C2391       C  0.17542776  0.95084575  0.98603334     0.36100
C2392       C  0.08740454  0.90896609  0.06002516     0.36900
N2393       N  0.28153067  0.93829662  0.05005645    -0.43900
N2394       N  0.14656107  0.85258780  0.98507655    -0.44300
N2395       N  0.06960817  0.89898800  0.07424429    -0.41700
N2396       N  0.19259742  0.95821636  0.96969418    -0.43100
H2397       H  0.12377230  0.97024656  0.98977146     0.13000
H2398       H  0.14095651  0.89087011  0.05777875     0.09500
H2399       H  0.20928829  0.93812071  0.04675844     0.10600
H2400       H  0.21933728  0.85023569  0.98868570     0.16400
C2401       C  0.31441477  0.00839942  0.24655149    -0.01800
C2402       C  0.30437054  0.01143147  0.27491279     0.06800
C2403       C  0.32419062  0.01402261  0.29746902    -0.07800
C2404       C  0.35357304  0.01398463  0.29207488     0.04200
C2405       C  0.36344814  0.01129064  0.26368398    -0.15000
C2406       C  0.34381077  0.00837763  0.24118297    -0.08300
C2407       C  0.27335835  0.01220381  0.28152712     0.05200
C2408       C  0.25592362  0.98821451  0.27557916    -0.09500
C2409       C  0.22657095  0.98819885  0.28150459     0.00200
C2410       C  0.21394858  0.01242224  0.29449488     0.00000
C2411       C  0.23176375  0.03674823  0.29942234    -0.13000
C2412       C  0.26099193  0.03667757  0.29344121     0.00500
C2413       C  0.21001991  0.96307252  0.27338307     0.39800
C2414       C  0.27762700  0.06251763  0.29886178     0.36400
C2415       C  0.29506775  0.00590876  0.22251482     0.36100
C2416       C  0.37318674  0.01615044  0.31599761     0.36900
N2417       N  0.19696498  0.94280056  0.26686250    -0.43900
N2418       N  0.29072326  0.08330886  0.30336763    -0.44300
N2419       N  0.38882655  0.01763038  0.33522626    -0.41700
N2420       N  0.27972792  0.00378986  0.20310468    -0.43100
H2421       H  0.35147811  0.00635079  0.21936655     0.13000
H2422       H  0.31664437  0.01602070  0.31932828     0.09500
H2423       H  0.26531657  0.96940575  0.26608977     0.10600
H2424       H  0.22330496  0.05668036  0.30685834     0.16400
C2425       C  0.72931148  0.99105367  0.29925442    -0.01800
C2426       C  0.71947879  0.01188810  0.27998989     0.06800
C2427       C  0.73849200  0.03291067  0.26973993    -0.07800
C2428       C  0.76732787  0.03285734  0.27750274     0.04200
C2429       C  0.77801685  0.01095133  0.29561231    -0.15000
C2430       C  0.75822571  0.99057187  0.30671417    -0.08300
C2431       C  0.68908205  0.01317740  0.27152460     0.05200
C2432       C  0.67361488  0.03717787  0.27959157    -0.09500
C2433       C  0.64454464  0.03902956  0.27333643     0.00200
C2434       C  0.63020513  0.01609052  0.25902229     0.00000
C2435       C  0.64612062  0.99236058  0.25026996    -0.13000
C2436       C  0.67540821  0.99100653  0.25592437     0.00500
C2437       C  0.63017539  0.06441416  0.28286468     0.39800
C2438       C  0.69112951  0.96704321  0.24501435     0.36400
C2439       C  0.70997742  0.97028794  0.31217779     0.36100
C2440       C  0.78530072  0.05587776  0.26662866     0.36900
N2441       N  0.61890967  0.08492644  0.29039875    -0.43900
N2442       N  0.70381767  0.94795592  0.23617196    -0.44300
N2443       N  0.79953785  0.07453784  0.25812929    -0.41700
N2444       N  0.69448787  0.95366543  0.32249130    -0.43100
H2445       H  0.76454436  0.97394964  0.32125891     0.13000
H2446       H  0.73070476  0.04948981  0.25554573     0.09500
H2447       H  0.68428092  0.05438527  0.29131463     0.10600
H2448       H  0.63571453  0.97477871  0.23892102     0.16400
C2449       C  0.43525785  0.90562845  0.38416873    -0.01800
C2450       C  0.40582077  0.89869328  0.38202106     0.06800
C2451       C  0.39023877  0.90958382  0.35879764    -0.07800
C2452       C  0.40337514  0.92706999  0.33804118     0.04200
C2453       C  0.43249209  0.93528206  0.34106064    -0.15000
C2454       C  0.44810245  0.92431905  0.36424074    -0.08300
C2455       C  0.39072352  0.88143509  0.40455791     0.05200
C2456       C  0.39263526  0.89048299  0.43322519    -0.09500
C2457       C  0.37873286  0.87533444  0.45523379     0.00200
C2458       C  0.36210307  0.85066010  0.44871670     0.00000
C2459       C  0.35972374  0.84185007  0.42000774    -0.13000
C2460       C  0.37389545  0.85683320  0.39802680     0.00500
C2461       C  0.38095983  0.88671278  0.48387664     0.39800
C2462       C  0.37109949  0.84621464  0.36908208     0.36400
C2463       C  0.45291041  0.89297629  0.40605971     0.36100
C2464       C  0.38619570  0.93660294  0.31421109     0.36900
N2465       N  0.38340765  0.89690337  0.50636273    -0.43900
N2466       N  0.36864471  0.83772507  0.34588449    -0.44300
N2467       N  0.37233772  0.94379850  0.29501280    -0.41700
N2468       N  0.46689430  0.88257805  0.42357731    -0.43100
H2469       H  0.47061317  0.92977909  0.36638371     0.13000
H2470       H  0.36759469  0.90462411  0.35698550     0.09500
H2471       H  0.40478156  0.90982019  0.43840199     0.10600
H2472       H  0.34691274  0.82295211  0.41478785     0.16400
C2473       C  0.62301588  0.86844387  0.40018900    -0.01800
C2474       C  0.60199535  0.88874505  0.40597547     0.06800
C2475       C  0.59353533  0.89328879  0.43431395    -0.07800
C2476       C  0.60575408  0.87804321  0.45701698     0.04200
C2477       C  0.62701884  0.85755266  0.45149163    -0.15000
C2478       C  0.63534125  0.85311551  0.42281347    -0.08300
C2479       C  0.58849906  0.90567705  0.38287894     0.05200
C2480       C  0.56263459  0.89580683  0.37086268    -0.09500
C2481       C  0.54850339  0.91205813  0.35008075     0.00200
C2482       C  0.56016909  0.93877428  0.34148698     0.00000
C2483       C  0.58620844  0.94840767  0.35311485    -0.13000
C2484       C  0.60047126  0.93205219  0.37365024     0.00500
C2485       C  0.52217892  0.90095030  0.33784936     0.39800
C2486       C  0.62714937  0.94292761  0.38519431     0.36400
C2487       C  0.63188690  0.86275907  0.37115797     0.36100
C2488       C  0.59623869  0.88471753  0.48556267     0.36900
N2489       N  0.50117348  0.89191050  0.32798858    -0.43900
N2490       N  0.64853734  0.95181834  0.39431297    -0.44300
N2491       N  0.58779151  0.89036262  0.50810564    -0.41700
N2492       N  0.63886911  0.85819728  0.34784985    -0.43100
H2493       H  0.65113895  0.83718758  0.41790448     0.13000
H2494       H  0.57734730  0.90900823  0.43870521     0.09500
H2495       H  0.55344537  0.87548362  0.37786690     0.10600
H2496       H  0.59531960  0.96881430  0.34622342     0.16400
C2497       C  0.39093572  0.15950388  0.40835717    -0.01800
C2498       C  0.38718769  0.12951170  0.41007349     0.06800
C2499       C  0.37054107  0.11758964  0.43216962    -0.07800
C2500       C  0.35767172  0.13524610  0.45249368     0.04200
C2501       C  0.36132674  0.16524768  0.45057940    -0.15000
C2502       C  0.37779342  0.17708639  0.42841577    -0.08300
C2503       C  0.40093626  0.11040463  0.38915065     0.05200
C2504       C  0.42655889  0.09735601  0.39668198    -0.09500
C2505       C  0.44167413  0.08126438  0.37664611     0.00200
C2506       C  0.43083661  0.07774312  0.34839402     0.00000
C2507       C  0.40459778  0.09031020  0.34133853    -0.13000
C2508       C  0.38973861  0.10656345  0.36137047     0.00500
C2509       C  0.46891764  0.07017555  0.38544033     0.39800
C2510       C  0.36320270  0.11945269  0.35293626     0.36400
C2511       C  0.40888250  0.17265538  0.38674770     0.36100
C2512       C  0.34152261  0.12210812  0.47547243     0.36900
N2513       N  0.49076307  0.06149920  0.39272860    -0.43900
N2514       N  0.34195280  0.12987756  0.34629510    -0.44300
N2515       N  0.32873425  0.11132134  0.49386290    -0.41700
N2516       N  0.42340635  0.18331296  0.36960795    -0.43100
H2517       H  0.38051752  0.20010806  0.42686005     0.13000
H2518       H  0.36783720  0.09450522  0.43364222     0.09500
H2519       H  0.43523513  0.10056073  0.41806321     0.10600
H2520       H  0.39566617  0.08761509  0.32000454     0.16400
C2521       C  0.46533489  0.18966819  0.23074163    -0.01800
C2522       C  0.49010171  0.20684869  0.22698811     0.06800
C2523       C  0.51682861  0.19507953  0.23273815    -0.07800
C2524       C  0.51946845  0.16624150  0.24028188     0.04200
C2525       C  0.49464891  0.14867920  0.24397799    -0.15000
C2526       C  0.46775927  0.16126771  0.23990954    -0.08300
C2527       C  0.48884600  0.23699629  0.21672473     0.05200
C2528       C  0.47158952  0.25646484  0.23113383    -0.09500
C2529       C  0.47061037  0.28519077  0.22266530     0.00200
C2530       C  0.48901168  0.29569585  0.20070316     0.00000
C2531       C  0.50484376  0.27555741  0.18519226    -0.13000
C2532       C  0.50481068  0.24661414  0.19287601     0.00500
C2533       C  0.45016891  0.30312710  0.23680550     0.39800
C2534       C  0.52085866  0.22715126  0.17536439     0.36400
C2535       C  0.43733889  0.20000727  0.22343160     0.36100
C2536       C  0.54810374  0.15552836  0.24268272     0.36900
N2537       N  0.43370392  0.31736177  0.24816005    -0.43900
N2538       N  0.53381084  0.21174973  0.16123647    -0.44300
N2539       N  0.57115934  0.14717848  0.24438961    -0.41700
N2540       N  0.41500998  0.20837245  0.21736165    -0.43100
H2541       H  0.44836159  0.14856760  0.24250997     0.13000
H2542       H  0.53594011  0.20835465  0.23035746     0.09500
H2543       H  0.45876569  0.24919866  0.24914722     0.10600
H2544       H  0.51677943  0.28178693  0.16637120     0.16400
C2545       C  0.51867477  0.78040570  0.19464222    -0.01800
C2546       C  0.49548445  0.79170100  0.20957911     0.06800
C2547       C  0.47189852  0.77407144  0.21580224    -0.07800
C2548       C  0.47161220  0.74500148  0.20838937     0.04200
C2549       C  0.49566159  0.73274637  0.19472617    -0.15000
C2550       C  0.51880513  0.75125736  0.18760128    -0.08300
C2551       C  0.49541782  0.82208034  0.21851562     0.05200
C2552       C  0.48571098  0.84252213  0.19901273    -0.09500
C2553       C  0.48661492  0.87162465  0.20594633     0.00200
C2554       C  0.49648776  0.88055167  0.23316708     0.00000
C2555       C  0.50671023  0.86015552  0.25259362    -0.13000
C2556       C  0.50634388  0.83096580  0.24537560     0.00500
C2557       C  0.47953332  0.89212621  0.18397105     0.39800
C2558       C  0.51784920  0.81053608  0.26539751     0.36400
C2559       C  0.54272789  0.79844817  0.18656093     0.36100
C2560       C  0.44625718  0.72837471  0.21541139     0.36900
N2561       N  0.47449898  0.90853946  0.16613718    -0.43900
N2562       N  0.52721465  0.79407620  0.28127016    -0.44300
N2563       N  0.42567905  0.71532827  0.22068383    -0.41700
N2564       N  0.56181567  0.81308696  0.17996645    -0.43100
H2565       H  0.53768565  0.74343487  0.17736147     0.13000
H2566       H  0.45371606  0.78305228  0.22672258     0.09500
H2567       H  0.47819602  0.83574931  0.17801708     0.10600
H2568       H  0.51502892  0.86702435  0.27323896     0.16400
C2569       C  0.61062610  0.06730336  0.12303961    -0.01800
C2570       C  0.61395479  0.09710261  0.11832410     0.06800
C2571       C  0.59679805  0.11596920  0.13385351    -0.07800
C2572       C  0.57656729  0.10560575  0.15364320     0.04200
C2573       C  0.57342699  0.07589326  0.15840276    -0.15000
C2574       C  0.59049763  0.05701055  0.14292310    -0.08300
C2575       C  0.63280906  0.10888978  0.09522085     0.05200
C2576       C  0.62722609  0.10075324  0.06681846    -0.09500
C2577       C  0.64207679  0.11332080  0.04386852     0.00200
C2578       C  0.66284136  0.13515210  0.04900196     0.00000
C2579       C  0.66927957  0.14245342  0.07765449    -0.13000
C2580       C  0.65466342  0.12941077  0.10064748     0.00500
C2581       C  0.63402780  0.10405338  0.01548248     0.39800
C2582       C  0.66255481  0.13719472  0.12960264     0.36400
C2583       C  0.62767544  0.04686049  0.10783413     0.36100
C2584       C  0.55768250  0.12559867  0.16703999     0.36900
N2585       N  0.62684623  0.09549347  0.99329055    -0.43900
N2586       N  0.66893633  0.14325329  0.15284443    -0.44300
N2587       N  0.54210865  0.14155792  0.17725769    -0.41700
N2588       N  0.64122837  0.03043019  0.09558485    -0.43100
H2589       H  0.58816470  0.03411921  0.14649611     0.13000
H2590       H  0.59848266  0.13881036  0.12970977     0.09500
H2591       H  0.61037722  0.08507414  0.06245702     0.10600
H2592       H  0.68554121  0.15871293  0.08207736     0.16400
C2593       C  0.63340259  0.88987568  0.09559198    -0.01800
C2594       C  0.61187639  0.90914433  0.08792127     0.06800
C2595       C  0.60698518  0.91513275  0.05889715    -0.07800
C2596       C  0.62327639  0.90235385  0.03747616     0.04200
C2597       C  0.64496736  0.88305115  0.04508409    -0.15000
C2598       C  0.64967690  0.87703444  0.07425215    -0.08300
C2599       C  0.59497964  0.92407707  0.10993602     0.05200
C2600       C  0.60915072  0.94309632  0.12866705    -0.09500
C2601       C  0.59418097  0.95740412  0.15001496     0.00200
C2602       C  0.56443910  0.95305006  0.15251613     0.00000
C2603       C  0.55012114  0.93449589  0.13347359    -0.13000
C2604       C  0.56517743  0.91980629  0.11238410     0.00500
C2605       C  0.60962353  0.97707742  0.16852158     0.39800
C2606       C  0.54978450  0.89979069  0.09420043     0.36400
C2607       C  0.63889851  0.88272638  0.12521634     0.36100
C2608       C  0.61652617  0.90914446  0.00808632     0.36900
N2609       N  0.62201804  0.99297999  0.18318999    -0.43900
N2610       N  0.53737762  0.88371149  0.07972172    -0.44300
N2611       N  0.61045322  0.91533694  0.98485753    -0.41700
N2612       N  0.64321255  0.87711902  0.14900019    -0.43100
H2613       H  0.66640427  0.86248780  0.08044878     0.13000
H2614       H  0.59047962  0.93006164  0.05299812     0.09500
H2615       H  0.63198951  0.94674185  0.12656199     0.10600
H2616       H  0.52726050  0.93099093  0.13553543     0.16400
C2617       C  0.40137228  0.95696180  0.10482104    -0.01800
C2618       C  0.38564698  0.93135327  0.10994055     0.06800
C2619       C  0.38823859  0.91776729  0.13659469    -0.07800
C2620       C  0.40590562  0.92915080  0.15810521     0.04200
C2621       C  0.42169805  0.95495409  0.15318599    -0.15000
C2622       C  0.41910902  0.96851031  0.12634002    -0.08300
C2623       C  0.36802226  0.91709196  0.08728199     0.05200
C2624       C  0.38125699  0.90905664  0.06161724    -0.09500
C2625       C  0.36610130  0.89391906  0.04042718     0.00200
C2626       C  0.33707097  0.88676921  0.04466451     0.00000
C2627       C  0.32394876  0.89410040  0.07048442    -0.13000
C2628       C  0.33902865  0.90932364  0.09169932     0.00500
C2629       C  0.38110580  0.88510464  0.01504179     0.39800
C2630       C  0.32425005  0.91660403  0.11774913     0.36400
C2631       C  0.39957757  0.97186489  0.07772666     0.36100
C2632       C  0.40824080  0.91287843  0.18437259     0.36900
N2633       N  0.39339440  0.87804775  0.99483828    -0.43900
N2634       N  0.31233520  0.92219253  0.13865218    -0.44300
N2635       N  0.41023011  0.89971044  0.20531214    -0.41700
N2636       N  0.39829795  0.98368191  0.05593755    -0.43100
H2637       H  0.43081062  0.98833691  0.12213293     0.13000
H2638       H  0.37690602  0.89763452  0.14037575     0.09500
H2639       H  0.40374934  0.91397377  0.05845042     0.10600
H2640       H  0.30187799  0.88770167  0.07414276     0.16400
C2641       C  0.41348549  0.08630368  0.10565888    -0.01800
C2642       C  0.39465334  0.10845893  0.11239146     0.06800
C2643       C  0.39298332  0.11795203  0.14081385    -0.07800
C2644       C  0.40907946  0.10525591  0.16267225     0.04200
C2645       C  0.42753956  0.08233214  0.15624939    -0.15000
C2646       C  0.42965964  0.07354122  0.12738472    -0.08300
C2647       C  0.37570772  0.12126507  0.09030474     0.05200
C2648       C  0.35402047  0.10421370  0.07791417    -0.09500
C2649       C  0.33542116  0.11538891  0.05725558     0.00200
C2650       C  0.33858558  0.14430037  0.04825690     0.00000
C2651       C  0.36024331  0.16135864  0.06108457    -0.13000
C2652       C  0.37859123  0.15016994  0.08191871     0.00500
C2653       C  0.31300070  0.09666992  0.04650383     0.39800
C2654       C  0.40086585  0.16847689  0.09370412     0.36400
C2655       C  0.41675311  0.07653213  0.07649745     0.36100
C2656       C  0.40578350  0.11636409  0.19131506     0.36900
N2657       N  0.29532160  0.08116323  0.03809852    -0.43900
N2658       N  0.41875626  0.18308749  0.10317433    -0.44300
N2659       N  0.40271041  0.12537660  0.21417772    -0.41700
N2660       N  0.41934427  0.06881530  0.05309231    -0.43100
H2661       H  0.44365618  0.05623767  0.12164334     0.13000
H2662       H  0.37857774  0.13510287  0.14602653     0.09500
H2663       H  0.35147154  0.08205697  0.08465649     0.10600
H2664       H  0.36347277  0.18338925  0.05425893     0.16400
C2665       C  0.76248719  0.20892901  0.52500276    -0.01800
C2666       C  0.77426165  0.22804940  0.50473424     0.06800
C2667       C  0.75656900  0.24001781  0.48389455    -0.07800
C2668       C  0.72722687  0.23390448  0.48347254     0.04200
C2669       C  0.71479246  0.21525918  0.50433313    -0.15000
C2670       C  0.73317077  0.20263896  0.52464867    -0.08300
C2671       C  0.80523565  0.23485895  0.50400283     0.05200
C2672       C  0.82125834  0.22438679  0.48117468    -0.09500
C2673       C  0.85072574  0.22939430  0.47979962     0.00200
C2674       C  0.86468752  0.24573465  0.50145735     0.00000
C2675       C  0.84839713  0.25648921  0.52421230    -0.13000
C2676       C  0.81889361  0.25121198  0.52560286     0.00500
C2677       C  0.86606311  0.21597727  0.45677169     0.39800
C2678       C  0.80299800  0.26293786  0.54918650     0.36400
C2679       C  0.78015734  0.19514203  0.54619457     0.36100
C2680       C  0.71038864  0.24746153  0.46144309     0.36900
N2681       N  0.87809062  0.20499303  0.43828484    -0.43900
N2682       N  0.79018812  0.27222847  0.56808823    -0.44300
N2683       N  0.69680397  0.25834496  0.44390405    -0.41700
N2684       N  0.79421687  0.18414525  0.56327030    -0.43100
H2685       H  0.72535965  0.18775716  0.54054580     0.13000
H2686       H  0.76575721  0.25440722  0.46797246     0.09500
H2687       H  0.81072789  0.21160743  0.46469191     0.10600
H2688       H  0.85870865  0.26908444  0.54095207     0.16400
C2689       C  0.58013390  0.08836494  0.39599212    -0.01800
C2690       C  0.58422483  0.11826330  0.39209058     0.06800
C2691       C  0.57504020  0.13065975  0.36638209    -0.07800
C2692       C  0.56138105  0.11424477  0.34519842     0.04200
C2693       C  0.55812976  0.08423929  0.34848744    -0.15000
C2694       C  0.56743534  0.07165640  0.37418266    -0.08300
C2695       C  0.59839762  0.13702240  0.41410338     0.05200
C2696       C  0.62558235  0.12988792  0.42417242    -0.09500
C2697       C  0.64004533  0.14702071  0.44431091     0.00200
C2698       C  0.62781215  0.17279057  0.45412649     0.00000
C2699       C  0.60055886  0.17994241  0.44408616    -0.13000
C2700       C  0.58582116  0.16239188  0.42434197     0.00500
C2701       C  0.66676964  0.13667689  0.45541489     0.39800
C2702       C  0.55769594  0.17078579  0.41518534     0.36400
C2703       C  0.58804677  0.07442487  0.42242398     0.36100
C2704       C  0.54846458  0.12939506  0.32176595     0.36900
N2705       N  0.68824504  0.12854375  0.46431754    -0.43900
N2706       N  0.53526880  0.17759492  0.40759866    -0.44300
N2707       N  0.53745499  0.14219593  0.30378085    -0.41700
N2708       N  0.59441911  0.06326349  0.44361279    -0.43100
H2709       H  0.56472614  0.04873318  0.37728464     0.13000
H2710       H  0.57805159  0.15351713  0.36301751     0.09500
H2711       H  0.63560508  0.11068593  0.41629338     0.10600
H2712       H  0.59073698  0.19939357  0.45158360     0.16400
C2713       C  0.58515336  0.29344612  0.49248491    -0.01800
C2714       C  0.58937491  0.31077862  0.51700329     0.06800
C2715       C  0.60644608  0.30095498  0.53950171    -0.07800
C2716       C  0.62088693  0.27518382  0.53711194     0.04200
C2717       C  0.61814173  0.25863909  0.51187204    -0.15000
C2718       C  0.59944705  0.26738708  0.49017837    -0.08300
C2719       C  0.57991513  0.34085561  0.51806549     0.05200
C2720       C  0.55210292  0.34709707  0.52670702    -0.09500
C2721       C  0.54306156  0.37555823  0.52782805     0.00200
C2722       C  0.56209850  0.39818817  0.52034064     0.00000
C2723       C  0.59005080  0.39185870  0.51222067    -0.13000
C2724       C  0.59914798  0.36347535  0.51137842     0.00500
C2725       C  0.51386214  0.38102547  0.53570205     0.39800
C2726       C  0.62820409  0.35779758  0.50315546     0.36400
C2727       C  0.56760257  0.30265981  0.46883782     0.36100
C2728       C  0.63852136  0.26615558  0.56081444     0.36900
N2729       N  0.49050949  0.38543296  0.54213105    -0.43900
N2730       N  0.65144436  0.35280241  0.49680087    -0.44300
N2731       N  0.65254985  0.25874636  0.57979892    -0.41700
N2732       N  0.55354211  0.30981124  0.44977058    -0.43100
H2733       H  0.59727601  0.25469469  0.47080095     0.13000
H2734       H  0.60953182  0.31415522  0.55843090     0.09500
H2735       H  0.53744096  0.32975158  0.53230364     0.10600
H2736       H  0.60452442  0.40901329  0.50572824     0.16400
C2737       C  0.31144289  0.98745633  0.74240691    -0.01800
C2738       C  0.29896590  0.00941453  0.72615085     0.06800
C2739       C  0.31573445  0.03280368  0.71716921    -0.07800
C2740       C  0.34500716  0.03403884  0.72295585     0.04200
C2741       C  0.35803534  0.01135308  0.73820300    -0.15000
C2742       C  0.34079826  0.98842167  0.74808522    -0.08300
C2743       C  0.26869850  0.00781577  0.71711599     0.05200
C2744       C  0.24991266  0.02844357  0.72703598    -0.09500
C2745       C  0.22117572  0.02760007  0.71894757     0.00200
C2746       C  0.21040842  0.00519624  0.70098219     0.00000
C2747       C  0.22990308  0.98523773  0.69023031    -0.13000
C2748       C  0.25877836  0.98663024  0.69789295     0.00500
C2749       C  0.20320356  0.05010399  0.72954484     0.39800
C2750       C  0.27817593  0.96673564  0.68495781     0.36400
C2751       C  0.29439396  0.96386033  0.75348763     0.36100
C2752       C  0.36099101  0.05825256  0.71159305     0.36900
N2753       N  0.18853023  0.06790516  0.73793357    -0.43900
N2754       N  0.29392291  0.95099651  0.67463391    -0.44300
N2755       N  0.37339823  0.07786002  0.70240747    -0.41700
N2756       N  0.28047226  0.94508285  0.76223892    -0.43100
H2757       H  0.35026292  0.97115328  0.76021000     0.13000
H2758       H  0.30601864  0.04974796  0.70476107     0.09500
H2759       H  0.25777244  0.04526443  0.74120339     0.10600
H2760       H  0.22332185  0.96875030  0.67534454     0.16400
C2761       C  0.67402865  0.00706722  0.74534471    -0.01800
C2762       C  0.68176758  0.00785224  0.71609301     0.06800
C2763       C  0.66044908  0.00925485  0.69502387    -0.07800
C2764       C  0.63167695  0.00984528  0.70272849     0.04200
C2765       C  0.62400115  0.00929881  0.73194909    -0.15000
C2766       C  0.64520429  0.00798049  0.75307657    -0.08300
C2767       C  0.71200522  0.00676736  0.70711574     0.05200
C2768       C  0.72740747  0.98208138  0.71297668    -0.09500
C2769       C  0.75646770  0.98068220  0.70656584     0.00200
C2770       C  0.77088234  0.00430829  0.69332169     0.00000
C2771       C  0.75482500  0.02893586  0.68713576    -0.13000
C2772       C  0.72575463  0.03019907  0.69370932     0.00500
C2773       C  0.77090339  0.95482035  0.71473435     0.39800
C2774       C  0.71070313  0.05622676  0.68740148     0.36400
C2775       C  0.69534016  0.00545974  0.76769368     0.36100
C2776       C  0.61035646  0.01075121  0.68029560     0.36900
N2777       N  0.78216858  0.93394511  0.72130874    -0.43900
N2778       N  0.69866341  0.07704217  0.68221346    -0.44300
N2779       N  0.59333858  0.01153939  0.66228475    -0.41700
N2780       N  0.71254224  0.00398434  0.78547371    -0.43100
H2781       H  0.63922689  0.00751909  0.77552608     0.13000
H2782       H  0.66632683  0.00958287  0.67254261     0.09500
H2783       H  0.71671203  0.96395982  0.72319101     0.10600
H2784       H  0.76457663  0.04799420  0.67820583     0.16400
C2785       C  0.41086050  0.12682100  0.63862596    -0.01800
C2786       C  0.40420681  0.11653675  0.61097970     0.06800
C2787       C  0.41085538  0.08831022  0.60374547    -0.07800
C2788       C  0.42388254  0.07018706  0.62362511     0.04200
C2789       C  0.43076862  0.08045729  0.65143686    -0.15000
C2790       C  0.42411848  0.10888820  0.65846193    -0.08300
C2791       C  0.39059770  0.13498671  0.58916014     0.05200
C2792       C  0.40590301  0.15876878  0.57853222    -0.09500
C2793       C  0.39415890  0.17645975  0.55749241     0.00200
C2794       C  0.36634324  0.17056642  0.54689591     0.00000
C2795       C  0.35100757  0.14674847  0.55775461    -0.13000
C2796       C  0.36294951  0.12890150  0.57855083     0.00500
C2797       C  0.41112519  0.20065874  0.54774782     0.39800
C2798       C  0.34641537  0.10459783  0.58886902     0.36400
C2799       C  0.40346776  0.15539257  0.64742018     0.36100
C2800       C  0.42886414  0.04099167  0.61502729     0.36900
N2801       N  0.42525664  0.21973082  0.54002364    -0.43900
N2802       N  0.33330916  0.08502805  0.59713884    -0.44300
N2803       N  0.43271774  0.01762080  0.60796368    -0.41700
N2804       N  0.39742239  0.17822971  0.65453481    -0.43100
H2805       H  0.42925025  0.11722578  0.67959516     0.13000
H2806       H  0.40569103  0.08038355  0.58245583     0.09500
H2807       H  0.42724772  0.16337566  0.58660271     0.10600
H2808       H  0.32978377  0.14175193  0.54961299     0.16400
C2809       C  0.55377381  0.09869081  0.60153695    -0.01800
C2810       C  0.58192827  0.10933407  0.60500181     0.06800
C2811       C  0.59652737  0.10421821  0.63068436    -0.07800
C2812       C  0.58350712  0.08898938  0.65306324     0.04200
C2813       C  0.55525544  0.07819701  0.64981580    -0.15000
C2814       C  0.54078998  0.08300958  0.62375770    -0.08300
C2815       C  0.59595082  0.12791163  0.58328118     0.05200
C2816       C  0.58547940  0.15550958  0.57905498    -0.09500
C2817       C  0.59977682  0.17515911  0.56128889     0.00200
C2818       C  0.62484566  0.16701412  0.54692923     0.00000
C2819       C  0.63508838  0.13919121  0.55090240    -0.13000
C2820       C  0.62103157  0.11973780  0.56907179     0.00500
C2821       C  0.58908719  0.20389789  0.55993738     0.39800
C2822       C  0.63282816  0.09162275  0.57283678     0.36400
C2823       C  0.53788145  0.10363393  0.57543977     0.36100
C2824       C  0.59997768  0.08448896  0.67883706     0.36900
N2825       N  0.57985227  0.22670829  0.55960668    -0.43900
N2826       N  0.64255454  0.06919181  0.57574996    -0.44300
N2827       N  0.61328650  0.08105412  0.69946270    -0.41700
N2828       N  0.52513521  0.10766870  0.55456012    -0.43100
H2829       H  0.51909036  0.07496085  0.62091698     0.13000
H2830       H  0.61808869  0.11269507  0.63344709     0.09500
H2831       H  0.56661362  0.16205649  0.59059106     0.10600
H2832       H  0.65417776  0.13262705  0.53976641     0.16400
C2833       C  0.62345922  0.89771976  0.57357993    -0.01800
C2834       C  0.60311722  0.88587960  0.59284329     0.06800
C2835       C  0.59703424  0.85623726  0.59153959    -0.07800
C2836       C  0.61055838  0.83874422  0.57153443     0.04200
C2837       C  0.62877153  0.85118911  0.55085187    -0.15000
C2838       C  0.63573163  0.88043175  0.55262364    -0.08300
C2839       C  0.58808987  0.90400260  0.61431004     0.05200
C2840       C  0.57510622  0.92942346  0.60523418    -0.09500
C2841       C  0.56145112  0.94745679  0.62468517    -0.09400
C2842       C  0.55866115  0.93918804  0.65377128     0.00000
C2843       C  0.57168779  0.91371459  0.66278011    -0.13000
C2844       C  0.58661706  0.89651084  0.64363888     0.00500
C2845       C  0.55196282  0.97487755  0.61433448     0.39800
C2846       C  0.60088182  0.87175509  0.65500613     0.36400
C2847       C  0.63257220  0.92739551  0.57513782     0.36100
C2848       C  0.60728048  0.80805560  0.57424454     0.36900
N2849       N  0.54461121  0.99697574  0.60613409    -0.43900
N2850       N  0.61220957  0.85190789  0.66420476    -0.44300
N2851       N  0.60510924  0.78348484  0.57722225    -0.41700
N2852       N  0.63978062  0.95121220  0.57639874    -0.43100
H2853       H  0.65061175  0.88983839  0.53733996     0.13000
H2854       H  0.58187730  0.84660201  0.60636717     0.09500
H2855       H  0.57595370  0.93549045  0.58279683     0.10600
H2856       H  0.57037207  0.90706503  0.68503445     0.16400
C2857       C  0.39508259  0.85561166  0.58069290    -0.01800
C2858       C  0.38385328  0.88204986  0.58935506     0.06800
C2859       C  0.35869201  0.89165049  0.57655478    -0.07800
C2860       C  0.34470536  0.87546316  0.55530508     0.04200
C2861       C  0.35617481  0.84904075  0.54619699    -0.15000
C2862       C  0.38138362  0.83950145  0.55911453    -0.08300
C2863       C  0.39819330  0.90022684  0.61149697     0.05200
C2864       C  0.42461402  0.91322987  0.60522469    -0.09500
C2865       C  0.43879115  0.93068049  0.62536538     0.00200
C2866       C  0.42644787  0.93554476  0.65266702     0.00000
C2867       C  0.39985034  0.92232596  0.65879344    -0.13000
C2868       C  0.38572349  0.90493136  0.63848829     0.00500
C2869       C  0.46633941  0.94246428  0.61742240     0.39800
C2870       C  0.35866905  0.89159057  0.64586066     0.36400
C2871       C  0.42013340  0.84422481  0.59433648     0.36100
C2872       C  0.31964409  0.88750851  0.54217800     0.36900
N2873       N  0.48836799  0.95184737  0.61077357    -0.43900
N2874       N  0.33696595  0.88072573  0.65138984    -0.44300
N2875       N  0.29950078  0.89720828  0.53184738    -0.41700
N2876       N  0.44010665  0.83508407  0.60548547    -0.43100
H2877       H  0.39020087  0.81920991  0.55260222     0.13000
H2878       H  0.35015743  0.91211020  0.58297430     0.09500
H2879       H  0.43422560  0.90966378  0.58442461     0.10600
H2880       H  0.38993239  0.92564999  0.67946983     0.16400
C2881       C  0.46603103  0.18526364  0.77554186    -0.01800
C2882       C  0.49119477  0.20195834  0.77861552     0.06800
C2883       C  0.51766073  0.18893846  0.77499055    -0.07800
C2884       C  0.51942122  0.15991253  0.76762285     0.04200
C2885       C  0.49408664  0.14333185  0.76278222    -0.15000
C2886       C  0.46761664  0.15651794  0.76732348    -0.08300
C2887       C  0.49029718  0.23317875  0.78484072     0.05200
C2888       C  0.47888276  0.24263052  0.81083029    -0.09500
C2889       C  0.47688899  0.27196229  0.81697751     0.00200
C2890       C  0.48542620  0.29277982  0.79624528     0.00000
C2891       C  0.49895718  0.28277876  0.77119875    -0.13000
C2892       C  0.50097502  0.25356891  0.76519486     0.00500
C2893       C  0.46700205  0.27954312  0.84518052     0.39800
C2894       C  0.51391962  0.24509105  0.73850294     0.36400
C2895       C  0.43825048  0.19712914  0.78062243     0.36100
C2896       C  0.54759406  0.14796580  0.76620595     0.36900
N2897       N  0.45887674  0.28531854  0.86782194    -0.43900
N2898       N  0.52439289  0.23829882  0.71718483    -0.44300
N2899       N  0.57024490  0.13851969  0.76542936    -0.41700
N2900       N  0.41598946  0.20648506  0.78503464    -0.43100
H2901       H  0.44784093  0.14433343  0.76478900     0.13000
H2902       H  0.53710193  0.20155765  0.77816607     0.09500
H2903       H  0.47179160  0.22692463  0.82656555     0.10600
H2904       H  0.50860691  0.29767001  0.75612985     0.16400
C2905       C  0.50940439  0.83233723  0.77726595    -0.01800
C2906       C  0.48758180  0.81502373  0.76512247     0.06800
C2907       C  0.46727724  0.82742249  0.74703184    -0.07800
C2908       C  0.46801544  0.85695437  0.74159476     0.04200
C2909       C  0.48933905  0.87452667  0.75452427    -0.15000
C2910       C  0.51018906  0.86180514  0.77185871    -0.08300
C2911       C  0.48563014  0.78400062  0.77163187     0.05200
C2912       C  0.48017392  0.77540132  0.79986301    -0.09500
C2913       C  0.48101223  0.74653629  0.80779735     0.00200
C2914       C  0.48634370  0.72512730  0.78692479     0.00000
C2915       C  0.49185396  0.73426775  0.75849494    -0.13000
C2916       C  0.49143091  0.76322230  0.75081285     0.00500
C2917       C  0.47697708  0.73987062  0.83778734     0.39800
C2918       C  0.49841777  0.77116596  0.72167359     0.36400
C2919       C  0.53116668  0.82016252  0.79535354     0.36100
C2920       C  0.44724625  0.86854181  0.72201247     0.36900
N2921       N  0.47355491  0.73474137  0.86183140    -0.43900
N2922       N  0.50406533  0.77735889  0.69830449    -0.44300
N2923       N  0.43074830  0.87795313  0.70624478    -0.41700
N2924       N  0.54836036  0.81003755  0.80985831    -0.43100
H2925       H  0.52673939  0.87500723  0.78181593     0.13000
H2926       H  0.45071462  0.81402262  0.73736471     0.09500
H2927       H  0.47607159  0.79152584  0.81600200     0.10600
H2928       H  0.49779518  0.71948418  0.74197356     0.16400
C2929       C  0.37697891  0.08827646  0.86010107    -0.01800
C2930       C  0.39031517  0.10536184  0.88150594     0.06800
C2931       C  0.42027789  0.10775234  0.88193286    -0.07800
C2932       C  0.43690858  0.09339339  0.86178392     0.04200
C2933       C  0.42362782  0.07576747  0.84096563    -0.15000
C2934       C  0.39367901  0.07384719  0.84001247    -0.08300
C2935       C  0.37387375  0.12004460  0.90441162     0.05200
C2936       C  0.38005029  0.11367095  0.93316465    -0.09500
C2937       C  0.36590643  0.12727920  0.95563949     0.00200
C2938       C  0.34426160  0.14715274  0.94959985     0.00000
C2939       C  0.33869260  0.15418389  0.92081938    -0.13000
C2940       C  0.35352839  0.14119854  0.89835700     0.00500
C2941       C  0.37562260  0.12178785  0.98449085     0.39800
C2942       C  0.34837881  0.15088808  0.86943559     0.36400
C2943       C  0.34633154  0.08454902  0.85864080     0.36100
C2944       C  0.46739246  0.09851559  0.86173360     0.36900
N2945       N  0.38421368  0.11728853  0.00731464    -0.43900
N2946       N  0.34432971  0.15879556  0.84627387    -0.44300
N2947       N  0.49176657  0.10299625  0.86140338    -0.41700
N2948       N  0.32177521  0.08167035  0.85715915    -0.43100
H2949       H  0.38331553  0.06064624  0.82375983     0.13000
H2950       H  0.43071107  0.12119710  0.89793075     0.09500
H2951       H  0.39638121  0.09821809  0.93808745     0.10600
H2952       H  0.32242354  0.16964664  0.91578690     0.16400
C2953       C  0.36722698  0.94787100  0.86176316    -0.01800
C2954       C  0.37674775  0.93221264  0.88579288     0.06800
C2955       C  0.40603177  0.92651434  0.88838703    -0.07800
C2956       C  0.42563452  0.93604829  0.86758490     0.04200
C2957       C  0.41598462  0.95125145  0.84337942    -0.15000
C2958       C  0.38674962  0.95689217  0.84069797    -0.08300
C2959       C  0.35658030  0.92017970  0.90768209     0.05200
C2960       C  0.33595918  0.89959901  0.89928115    -0.09500
C2961       C  0.31914691  0.88495811  0.91967072     0.00200
C2962       C  0.32300261  0.89057484  0.94927287     0.00000
C2963       C  0.34209821  0.91274298  0.95738228    -0.13000
C2964       C  0.35889145  0.92736409  0.93700290     0.00500
C2965       C  0.29787266  0.86456149  0.90957629     0.39800
C2966       C  0.37843799  0.94959919  0.94673994     0.36400
C2967       C  0.33780155  0.95604831  0.85882280     0.36100
C2968       C  0.45532470  0.92892773  0.87086903     0.36900
N2969       N  0.28077979  0.84826202  0.90145023    -0.43900
N2970       N  0.39399567  0.96747541  0.95464316    -0.44300
N2971       N  0.47911423  0.92312825  0.87335453    -0.41700
N2972       N  0.31432414  0.96297112  0.85639193    -0.43100
H2973       H  0.37924083  0.96905079  0.82240438     0.13000
H2974       H  0.41353609  0.91419473  0.90655604     0.09500
H2975       H  0.33358974  0.89431199  0.87674696     0.10600
H2976       H  0.34489817  0.91793357  0.97985450     0.16400
C2977       C  0.64580894  0.92028386  0.91519200    -0.01800
C2978       C  0.61998781  0.90731427  0.90565255     0.06800
C2979       C  0.61143699  0.88084588  0.91736765    -0.07800
C2980       C  0.62772446  0.86752694  0.93862581     0.04200
C2981       C  0.65368524  0.88040036  0.94814469    -0.15000
C2982       C  0.66236363  0.90678486  0.93623083    -0.08300
C2983       C  0.60126099  0.92108533  0.88388729     0.05200
C2984       C  0.61157079  0.92558769  0.85604396    -0.09500
C2985       C  0.59448123  0.93800699  0.83481327     0.00200
C2986       C  0.56609629  0.94614333  0.84124607     0.00000
C2987       C  0.55594110  0.94161475  0.86923765    -0.13000
C2988       C  0.57313413  0.92922144  0.89040015     0.00500
C2989       C  0.60730404  0.94300347  0.80706360     0.39800
C2990       C  0.56167077  0.92584903  0.91891589     0.36400
C2991       C  0.65509615  0.94803084  0.90471319     0.36100
C2992       C  0.61600533  0.84191895  0.95184177     0.36900
N2993       N  0.61783471  0.94688932  0.78494426    -0.43900
N2994       N  0.55243347  0.92322128  0.94176949    -0.44300
N2995       N  0.60638723  0.82152647  0.96248709    -0.41700
N2996       N  0.66255834  0.97032629  0.89645805    -0.43100
H2997       H  0.68190801  0.91711844  0.94370714     0.13000
H2998       H  0.59152598  0.87086566  0.91032162     0.09500
H2999       H  0.63315666  0.91937306  0.85088765     0.10600
H3000       H  0.53444902  0.94779947  0.87469424     0.16400
C3001       C  0.60637607  0.13531407  0.92673149    -0.01800
C3002       C  0.61615330  0.11198556  0.91054205     0.06800
C3003       C  0.64404340  0.10232640  0.91516249    -0.07800
C3004       C  0.66211260  0.11547418  0.93553896     0.04200
C3005       C  0.65219295  0.13862041  0.95196931    -0.15000
C3006       C  0.62418416  0.14808158  0.94738362    -0.08300
C3007       C  0.59827261  0.09841697  0.88762433     0.05200
C3008       C  0.60792048  0.09959988  0.85921183    -0.09500
C3009       C  0.59201159  0.08711781  0.83679404     0.00200
C3010       C  0.56538057  0.07325357  0.84256797     0.00000
C3011       C  0.55592169  0.07214204  0.87122667    -0.13000
C3012       C  0.57213236  0.08419377  0.89359601     0.00500
C3013       C  0.60439983  0.08804502  0.80848012     0.39800
C3014       C  0.56197907  0.08053649  0.92260188     0.36400
C3015       C  0.57865932  0.14743126  0.92169288     0.36100
C3016       C  0.69105901  0.10571174  0.93799174     0.36900
N3017       N  0.61457190  0.08875218  0.78589697    -0.43900
N3018       N  0.55368307  0.07737071  0.94575977    -0.44300
N3019       N  0.71424715  0.09773754  0.93967135    -0.41700
N3020       N  0.55648965  0.15723810  0.91768308    -0.43100
H3021       H  0.61617403  0.16576068  0.95988992     0.13000
H3022       H  0.65185874  0.08469650  0.90245398     0.09500
H3023       H  0.62817711  0.11023287  0.85454914     0.10600
H3024       H  0.53585105  0.06144591  0.87642560     0.16400
loop_ 
_geom_bond_atom_site_label_1 
_geom_bond_atom_site_label_2 
_geom_bond_distance 
_geom_bond_site_symmetry_2 
_ccdc_geom_bond_type 
O1          Zr37   2.442       .  S
O1           C12   1.294       .  A
O2          Zr36   2.427       .  S
O2           C13   1.291       .  A
O3           Zr9   2.430       .  S
O3           C14   1.290       .  A
O4           Zr9   2.443       .  S
O4           C15   1.292       .  A
O5          Zr39   2.439       .  S
O5           C15   1.293       .  A
O6          Zr38   2.442       .  S
O6           C14   1.291   1_565  A
O7           Zr9   2.450       .  S
O7           C13   1.295       .  A
O8           Zr9   2.445       .  S
O8           C12   1.293       .  A
Zr9          O10   2.337       .  S
Zr9          O11   2.345       .  S
Zr9          O19   2.336       .  S
Zr9          O17   2.343       .  S
O10         Zr36   2.353       .  S
O10         Zr39   2.330       .  S
O11         Zr37   2.344       .  S
O11         Zr38   2.335   1_545  S
C12        C3010   1.498       .  S
C13        C2813   1.484       .  S
C14        C2765   1.464       .  S
C15        C2885   1.499       .  S
H16          O17   0.964       .  S
O17         Zr36   2.328       .  S
O17         Zr38   2.336   1_545  S
H18          O19   0.964       .  S
O19         Zr37   2.337       .  S
O19         Zr39   2.338       .  S
O20         Zr36   2.444   1_565  S
O20          C43   1.293       .  A
O21         Zr37   2.447   1_565  S
O21          C44   1.294       .  A
O22         Zr38   2.421       .  S
O22          C45   1.290       .  A
O23         Zr39   2.438       .  S
O23          C46   1.293       .  A
O24         Zr39   2.426       .  S
O24          C47   1.290       .  A
O25         Zr38   2.418       .  S
O25          C48   1.288       .  A
O26         Zr40   2.438       .  S
O26          C49   1.293       .  A
O27         Zr40   2.449       .  S
O27          C50   1.295   1_565  A
O28         Zr38   2.437       .  S
O28          C49   1.292       .  A
O29         Zr39   2.423       .  S
O29          C50   1.289       .  A
O30         Zr36   2.456   1_565  S
O30          C45   1.295       .  A
O31         Zr37   2.471   1_565  S
O31          C48   1.299       .  A
O32         Zr37   2.464       .  S
O32          C47   1.297       .  A
O33         Zr36   2.434       .  S
O33          C46   1.291       .  A
O34         Zr40   2.449       .  S
O34          C43   1.295       .  A
O35         Zr40   2.444       .  S
O35          C44   1.293       .  A
Zr36         O42   2.338   1_545  S
Zr36         O54   2.334       .  S
Zr37         O41   2.345       .  S
Zr37         O52   2.338   1_545  S
Zr38         O42   2.339       .  S
Zr38         O52   2.347       .  S
Zr39         O41   2.336       .  S
Zr39         O54   2.346       .  S
Zr40         O41   2.335   1_565  S
Zr40         O42   2.343       .  S
Zr40         O54   2.344   1_565  S
Zr40         O52   2.355       .  S
C43        C2866   1.497       .  S
C44        C2957   1.481       .  S
C45        C2842   1.494       .  S
C46        C2789   1.487       .  S
C47        C2933   1.480       .  S
C48        C2986   1.495       .  S
C49        C2909   1.480       .  S
C50        C2741   1.484       .  S
H51          O52   0.968       .  S
H53          O54   0.962       .  S
C55          C56   1.550       .  S
C55          C61   1.528       .  S
C55          C59   1.535       .  S
C55        C2669   1.537       .  S
C56          H63   1.080       .  S
C56          C57   1.367       .  D
C57          C58   1.532       .  S
C57        C2818   1.482       .  S
C58          C62   1.540       .  S
C58          C60   1.543       .  S
C58          H64   1.110       .  S
C59          H65   1.085       .  S
C59          C60   1.368       .  D
C60        C2698   1.495       .  S
C61          H66   1.087       .  S
C61          C62   1.360       .  D
C62        C2717   1.479       .  S
O67        Zr103   2.440       .  S
O67          C78   1.293       .  A
O68        Zr102   2.424       .  S
O68          C79   1.290       .  A
O69         Zr75   2.444       .  S
O69          C80   1.293       .  A
O70         Zr75   2.443   1_565  S
O70          C81   1.292       .  A
O71        Zr105   2.431       .  S
O71          C81   1.290       .  A
O72        Zr104   2.440       .  S
O72          C80   1.294       .  A
O73         Zr75   2.464   1_565  S
O73          C79   1.297       .  A
O74         Zr75   2.453       .  S
O74          C78   1.295       .  A
Zr75         O76   2.340   1_545  S
Zr75         O77   2.351       .  S
Zr75         O85   2.339       .  S
Zr75         O83   2.334       .  S
O76        Zr102   2.336       .  S
O76        Zr105   2.336       .  S
O77        Zr103   2.335       .  S
O77        Zr104   2.338       .  S
C78        C2693   1.489       .  S
C79        C2453   1.486       .  S
C80        C2506   1.491       .  S
C81        C2482   1.468       .  S
H82          O83   0.941       .  S
O83        Zr102   2.338   1_545  S
O83        Zr104   2.347       .  S
H84          O85   0.965       .  S
O85        Zr103   2.351       .  S
O85        Zr105   2.348   1_545  S
O86        Zr102   2.423       .  S
O86         C109   1.289       .  A
O87        Zr103   2.444       .  S
O87         C110   1.293       .  A
O88        Zr104   2.433       .  S
O88         C111   1.290       .  A
O89        Zr105   2.438       .  S
O89         C112   1.291       .  A
O90        Zr105   2.436       .  S
O90         C113   1.293   1_565  A
O91        Zr104   2.429       .  S
O91         C114   1.292       .  A
O92        Zr106   2.437       .  S
O92         C115   1.293       .  A
O93        Zr106   2.435   1_565  S
O93         C116   1.291       .  A
O94        Zr104   2.454       .  S
O94         C115   1.295       .  A
O95        Zr105   2.435       .  S
O95         C116   1.291       .  A
O96        Zr102   2.444       .  S
O96         C111   1.292   1_565  A
O97        Zr103   2.448       .  S
O97         C114   1.293       .  A
O98        Zr103   2.431       .  S
O98         C113   1.291       .  A
O99        Zr102   2.443       .  S
O99         C112   1.293       .  A
O100       Zr106   2.449   1_565  S
O100        C109   1.295       .  A
O101       Zr106   2.450       .  S
O101        C110   1.294       .  A
Zr102       O108   2.336   1_565  S
Zr102       O120   2.341       .  S
Zr103       O107   2.337       .  S
Zr103       O118   2.340       .  S
Zr104       O108   2.336       .  S
Zr104       O118   2.346       .  S
Zr105       O107   2.335   1_565  S
Zr105       O120   2.346       .  S
Zr106       O107   2.339       .  S
Zr106       O108   2.345       .  S
Zr106       O120   2.336   1_545  S
Zr106       O118   2.338       .  S
C109       C2621   1.491       .  S
C110       C2573   1.480       .  S
C111       C2405   1.467       .  S
C112       C2554   1.471       .  S
C113       C2434   1.485       .  S
C114       C2525   1.497       .  S
C115       C2645   1.500       .  S
C116       C2602   1.468       .  S
H117        O118   0.966       .  S
H119        O120   0.964       .  S
C121        C122   1.536       .  S
C121        C127   1.533   1_556  S
C121        C125   1.542   1_556  S
C121       C2362   1.542       .  S
C122        H129   1.086       .  S
C122        C123   1.370       .  D
C123        C124   1.546   1_556  S
C123       C2962   1.500       .  S
C124        C128   1.550       .  S
C124        C126   1.541       .  S
C124        H130   1.108       .  S
C125        H131   1.080       .  S
C125        C126   1.365       .  D
C126       C2626   1.477       .  S
C127        H132   1.086       .  S
C127        C128   1.363       .  D
C128       C2386   1.503       .  S
C133        C134   1.549       .  S
C133        C139   1.535       .  S
C133        C137   1.539   1_554  S
C133       C2314   1.545       .  S
C134        H141   1.080       .  S
C134        C135   1.370       .  D
C135        C136   1.537   1_554  S
C135       C2597   1.487       .  S
C136        C140   1.538   1_556  S
C136        C138   1.541       .  S
C136        H142   1.110       .  S
C137        H143   1.086       .  S
C137        C138   1.367       .  D
C138       C2981   1.491       .  S
C139        H144   1.087       .  S
C139        C140   1.363       .  D
C140       C2338   1.484       .  S
C145        C146   1.541       .  S
C145        C151   1.541       .  S
C145        C149   1.536       .  S
C145       C2261   1.541       .  S
C146        H153   1.086       .  S
C146        C147   1.372       .  D
C147        C148   1.544       .  S
C147       C2477   1.499       .  S
C148        C152   1.533       .  S
C148        C150   1.542       .  S
C148        H154   1.107       .  S
C149        H155   1.086       .  S
C149        C150   1.361       .  D
C150       C2837   1.478       .  S
C151        H156   1.078       .  S
C151        C152   1.363       .  D
C152       C2285   1.486       .  S
C157        C158   1.541   1_556  S
C157        C163   1.542       .  S
C157        C161   1.545       .  S
C157       C2218   1.552       .  S
C158        H165   1.086       .  S
C158        C159   1.372       .  D
C159        C160   1.544   1_554  S
C159       C2650   1.500       .  S
C160        C164   1.531       .  S
C160        C162   1.537       .  S
C160        H166   1.107       .  S
C161        H167   1.086       .  S
C161        C162   1.371       .  D
C162       C2938   1.493       .  S
C163        H168   1.080       .  S
C163        C164   1.360       .  D
C164       C2242   1.473       .  S
C169        C170   1.544       .  S
C169        C175   1.527       .  S
C169        C173   1.538   1_556  S
C169       C2170   1.542   1_556  S
C170        H177   1.079       .  S
C170        C171   1.364       .  D
C171        C172   1.543       .  S
C171       C3005   1.492       .  S
C172        C176   1.546       .  S
C172        C174   1.550   1_556  S
C172        H178   1.109       .  S
C173        H179   1.086       .  S
C173        C174   1.371       .  D
C174       C2578   1.497       .  S
C175        H180   1.087       .  S
C175        C176   1.362       .  D
C176       C2194   1.490       .  S
C181        C182   1.540       .  S
C181        C187   1.548       .  S
C181        C185   1.540       .  S
C181       C2122   1.543       .  S
C182        H189   1.086       .  S
C182        C183   1.362       .  D
C183        C184   1.532       .  S
C183       C2501   1.474       .  S
C184        C188   1.532       .  S
C184        C186   1.540       .  S
C184        H190   1.110       .  S
C185        H191   1.086       .  S
C185        C186   1.370       .  D
C186       C2794   1.487       .  S
C187        H192   1.079       .  S
C187        C188   1.363       .  D
C188       C2146   1.484       .  S
C193        C194   1.533       .  S
C193        C199   1.522       .  S
C193        C197   1.547       .  S
C193       C2069   1.531       .  S
C194        H201   1.086       .  S
C194        C195   1.365       .  D
C195        C196   1.549       .  S
C195       C2861   1.492       .  S
C196        C200   1.554       .  S
C196        C198   1.543       .  S
C196        H202   1.110       .  S
C197        H203   1.081       .  S
C197        C198   1.366       .  D
C198       C2458   1.487       .  S
C199        H204   1.087       .  S
C199        C200   1.361       .  D
C200       C2093   1.498       .  S
O205       Zr241   2.426       .  S
O205        C216   1.290       .  A
O206       Zr240   2.450       .  S
O206        C217   1.294   1_455  A
O207       Zr213   2.437       .  S
O207        C218   1.293       .  A
O208       Zr213   2.438       .  S
O208        C219   1.293       .  A
O209       Zr243   2.451       .  S
O209        C219   1.295       .  A
O210       Zr242   2.442       .  S
O210        C218   1.292       .  A
O211       Zr213   2.453       .  S
O211        C217   1.296       .  A
O212       Zr213   2.443       .  S
O212        C216   1.294       .  A
Zr213       O214   2.342       .  S
Zr213       O215   2.344       .  S
Zr213       O223   2.343       .  S
Zr213       O221   2.338       .  S
O214       Zr240   2.342   1_655  S
O214       Zr243   2.347       .  S
O215       Zr241   2.344       .  S
O215       Zr242   2.343       .  S
C216       C2266   1.486       .  S
C217       C1853   1.499       .  S
C218       C1925   1.494       .  S
C219       C2021   1.493       .  S
H220        O221   0.967       .  S
O221       Zr240   2.332   1_655  S
O221       Zr242   2.324       .  S
H222        O223   0.964       .  S
O223       Zr241   2.343       .  S
O223       Zr243   2.332       .  S
O224       Zr240   2.439       .  S
O224        C247   1.293       .  A
O225       Zr241   2.436       .  S
O225        C248   1.291       .  A
O226       Zr242   2.438   1_455  S
O226        C249   1.291       .  A
O227       Zr243   2.435   1_455  S
O227        C250   1.291       .  A
O228       Zr243   2.423       .  S
O228        C251   1.289       .  A
O229       Zr242   2.427       .  S
O229        C252   1.291       .  A
O230       Zr244   2.435       .  S
O230        C253   1.292       .  A
O231       Zr244   2.462       .  S
O231        C254   1.297       .  A
O232       Zr242   2.436   1_455  S
O232        C253   1.293       .  A
O233       Zr243   2.459   1_455  S
O233        C254   1.296       .  A
O234       Zr240   2.441       .  S
O234        C249   1.292       .  A
O235       Zr241   2.444       .  S
O235        C252   1.293       .  A
O236       Zr241   2.436       .  S
O236        C251   1.292       .  A
O237       Zr240   2.421       .  S
O237        C250   1.289       .  A
O238       Zr244   2.427       .  S
O238        C247   1.290       .  A
O239       Zr244   2.438       .  S
O239        C248   1.291   1_455  A
Zr240       O246   2.330       .  S
Zr240       O258   2.351       .  S
Zr241       O245   2.340       .  S
Zr241       O256   2.338       .  S
Zr242       O246   2.338   1_655  S
Zr242       O256   2.335       .  S
Zr243       O245   2.346       .  S
Zr243       O258   2.332   1_655  S
Zr244       O245   2.332   1_455  S
Zr244       O246   2.346       .  S
Zr244       O258   2.344       .  S
Zr244       O256   2.347   1_455  S
C247       C2074   1.473       .  S
C248       C1834   1.465       .  S
C249       C1906   1.473       .  S
C250       C2045   1.463       .  S
C251       C1997   1.468       .  S
C252       C1949   1.481       .  S
C253       C1877   1.478       .  S
C254       C1978   1.507       .  S
H255        O256   0.959       .  S
H257        O258   0.965       .  S
O259       Zr295   2.436       .  S
O259        C270   1.292       .  A
O260       Zr294   2.430       .  S
O260        C271   1.292   1_455  A
O261       Zr267   2.466       .  S
O261        C272   1.298       .  A
O262       Zr267   2.453       .  S
O262        C273   1.295       .  A
O263       Zr297   2.425       .  S
O263        C273   1.291       .  A
O264       Zr296   2.433       .  S
O264        C272   1.290       .  A
O265       Zr267   2.427       .  S
O265        C271   1.290       .  A
O266       Zr267   2.435       .  S
O266        C270   1.292       .  A
Zr267       O268   2.346       .  S
Zr267       O269   2.341       .  S
Zr267       O277   2.343       .  S
Zr267       O275   2.338       .  S
O268       Zr294   2.337   1_655  S
O268       Zr297   2.339       .  S
O269       Zr295   2.343       .  S
O269       Zr296   2.338       .  S
C270       C2674   1.484       .  S
C271       C1613   1.478       .  S
C272       C1757   1.505       .  S
C273       C1661   1.487       .  S
H274        O275   0.966       .  S
O275       Zr294   2.343   1_655  S
O275       Zr296   2.343       .  S
H276        O277   0.963       .  S
O277       Zr295   2.336       .  S
O277       Zr297   2.350       .  S
O278       Zr294   2.446       .  S
O278        C301   1.294       .  A
O279       Zr295   2.444       .  S
O279        C302   1.294       .  A
O280       Zr296   2.443   1_455  S
O280        C303   1.294       .  A
O281       Zr297   2.455   1_455  S
O281        C304   1.295       .  A
O282       Zr297   2.459       .  S
O282        C305   1.297       .  A
O283       Zr296   2.443       .  S
O283        C306   1.293       .  A
O284       Zr298   2.447       .  S
O284        C307   1.295       .  A
O285       Zr298   2.437       .  S
O285        C308   1.293       .  A
O286       Zr296   2.428   1_455  S
O286        C307   1.290       .  A
O287       Zr297   2.437   1_455  S
O287        C308   1.292       .  A
O288       Zr294   2.429       .  S
O288        C303   1.290       .  A
O289       Zr295   2.436       .  S
O289        C306   1.292       .  A
O290       Zr295   2.434       .  S
O290        C305   1.291       .  A
O291       Zr294   2.446       .  S
O291        C304   1.294       .  A
O292       Zr298   2.428       .  S
O292        C301   1.290       .  A
O293       Zr298   2.439       .  S
O293        C302   1.292   1_455  A
Zr294       O300   2.338       .  S
Zr294       O312   2.334       .  S
Zr295       O299   2.334       .  S
Zr295       O310   2.334       .  S
Zr296       O300   2.338   1_655  S
Zr296       O310   2.348       .  S
Zr297       O299   2.335       .  S
Zr297       O312   2.349   1_655  S
Zr298       O299   2.338   1_455  S
Zr298       O300   2.338       .  S
Zr298       O312   2.342       .  S
Zr298       O310   2.332   1_455  S
C301       C2117   1.488       .  S
C302       C1589   1.501       .  S
C303       C1738   1.493       .  S
C304       C1685   1.494       .  S
C305       C1637   1.503       .  S
C306       C1781   1.484       .  S
C307       C1805   1.484       .  S
C308       C1709   1.487       .  S
H309        O310   0.963       .  S
H311        O312   0.963       .  S
C313        C314   1.548       .  S
C313        C319   1.532       .  S
C313        C317   1.537       .  S
C313       C1541   1.531       .  S
C314        H321   1.081       .  S
C314        C315   1.370       .  D
C315        C316   1.538       .  S
C315       C1666   1.487       .  S
C316        C320   1.535       .  S
C316        C318   1.530       .  S
C316        H322   1.110       .  S
C317        H323   1.086       .  S
C317        C318   1.359       .  D
C318       C1930   1.468       .  S
C319        H324   1.086       .  S
C319        C320   1.362       .  D
C320       C1570   1.481       .  S
C325        C326   1.542       .  S
C325        C331   1.526       .  S
C325        C329   1.538       .  S
C325       C1493   1.540       .  S
C326        H333   1.082       .  S
C326        C327   1.369       .  D
C327        C328   1.546       .  S
C327       C1901   1.483       .  S
C328        C332   1.545       .  S
C328        C330   1.552       .  S
C328        H334   1.108       .  S
C329        H335   1.084       .  S
C329        C330   1.373       .  D
C330       C1690   1.510       .  S
C331        H336   1.087       .  S
C331        C332   1.360       .  D
C332       C1522   1.494       .  S
C337        C338   1.549   1_545  S
C337        C343   1.535       .  S
C337        C341   1.532       .  S
C337       C2429   1.537       .  S
C338        H345   1.078       .  S
C338        C339   1.366       .  D
C339        C340   1.531   1_565  S
C339       C2002   1.483       .  S
C340        C344   1.537       .  S
C340        C342   1.539       .  S
C340        H346   1.110       .  S
C341        H347   1.086       .  S
C341        C342   1.366       .  D
C342       C1786   1.487       .  S
C343        H348   1.086       .  S
C343        C344   1.366       .  D
C344       C1469   1.488       .  S
C349        C350   1.545       .  S
C349        C355   1.528       .  S
C349        C353   1.540   1_545  S
C349       C2770   1.537       .  S
C350        H357   1.081       .  S
C350        C351   1.366       .  D
C351        C352   1.542       .  S
C351       C1762   1.489       .  S
C352        C356   1.541       .  S
C352        C354   1.538   1_545  S
C352        H358   1.111   1_545  S
C353        H359   1.086       .  S
C353        C354   1.365       .  D
C354       C2026   1.476       .  S
C355        H360   1.087       .  S
C355        C356   1.361       .  D
C356       C1445   1.483       .  S
C361        C362   1.534       .  S
C361        C367   1.529       .  S
C361        C365   1.552       .  S
C361       C1397   1.539       .  S
C362        H369   1.086       .  S
C362        C363   1.366       .  D
C363        C364   1.542       .  S
C363       C1954   1.484       .  S
C364        C368   1.540       .  S
C364        C366   1.537       .  S
C364        H370   1.110       .  S
C365        H371   1.082       .  S
C365        C366   1.372       .  D
C366       C1642   1.489       .  S
C367        H372   1.087       .  S
C367        C368   1.358       .  D
C368       C1421   1.479       .  S
C373        C374   1.536       .  S
C373        C379   1.543       .  S
C373        C377   1.542       .  S
C373       C1349   1.538       .  S
C374        H381   1.086       .  S
C374        C375   1.365       .  D
C375        C376   1.537       .  S
C375       C1714   1.485       .  S
C376        C380   1.531       .  S
C376        C378   1.538       .  S
C376        H382   1.111       .  S
C377        H383   1.086       .  S
C377        C378   1.368       .  D
C378       C1882   1.487       .  S
C379        H384   1.083       .  S
C379        C380   1.362       .  D
C380       C1373   1.473       .  S
C385        C386   1.546       .  S
C385        C391   1.527       .  S
C385        C389   1.545   1_545  S
C385       C2410   1.543       .  S
C386        H393   1.080       .  S
C386        C387   1.364       .  D
C387        C388   1.533       .  S
C387       C1810   1.484       .  S
C388        C392   1.539       .  S
C388        C390   1.546   1_545  S
C388        H394   1.109       .  S
C389        H395   1.085       .  S
C389        C390   1.375       .  D
C390       C1973   1.504       .  S
C391        H396   1.087       .  S
C391        C392   1.359       .  D
C392       C1330   1.475       .  S
C397        C398   1.545   1_545  S
C397        C403   1.534       .  S
C397        C401   1.528       .  S
C397       C2746   1.531       .  S
C398        H405   1.081       .  S
C398        C399   1.372       .  D
C399        C400   1.539   1_565  S
C399       C2050   1.491       .  S
C400        C404   1.541       .  S
C400        C402   1.539       .  S
C400        H406   1.101       .  S
C401        H407   1.087       .  S
C401        C402   1.356       .  D
C402       C1733   1.468       .  S
C403        H408   1.086       .  S
C403        C404   1.368       .  D
C404       C1306   1.501       .  S
O409       Zr445   2.449       .  S
O409        C420   1.293       .  A
O410       Zr444   2.431       .  S
O410        C421   1.290       .  A
O411       Zr417   2.444       .  S
O411        C422   1.294       .  A
O412       Zr417   2.436       .  S
O412        C423   1.292       .  A
O413       Zr447   2.431   1_554  S
O413        C423   1.292       .  A
O414       Zr446   2.442   1_554  S
O414        C422   1.293       .  A
O415       Zr417   2.436       .  S
O415        C421   1.292       .  A
O416       Zr417   2.450       .  S
O416        C420   1.295   1_554  A
Zr417       O418   2.337       .  S
Zr417       O419   2.334   1_554  S
Zr417       O427   2.340   1_554  S
Zr417       O425   2.343       .  S
O418       Zr444   2.330       .  S
O418       Zr447   2.331   1_554  S
O419       Zr445   2.336       .  S
O419       Zr446   2.341       .  S
C420       C2309   1.499       .  S
C421       C1402   1.472       .  S
C422       C1133   1.479       .  S
C423       C1277   1.486       .  S
H424        O425   0.964       .  S
O425       Zr444   2.336       .  S
O425       Zr446   2.349   1_554  S
H426        O427   0.964       .  S
O427       Zr445   2.332       .  S
O427       Zr447   2.355       .  S
O428       Zr444   2.433       .  S
O428        C451   1.290   1_554  A
O429       Zr445   2.432       .  S
O429        C452   1.291       .  A
O430       Zr446   2.443   1_554  S
O430        C453   1.294       .  A
O431       Zr447   2.454   1_554  S
O431        C454   1.296       .  A
O432       Zr447   2.450       .  S
O432        C455   1.295       .  A
O433       Zr446   2.444       .  S
O433        C456   1.294       .  A
O434       Zr448   2.446       .  S
O434        C457   1.294       .  A
O435       Zr448   2.450       .  S
O435        C458   1.295       .  A
O436       Zr446   2.447       .  S
O436        C457   1.294       .  A
O437       Zr447   2.440       .  S
O437        C458   1.292       .  A
O438       Zr444   2.426       .  S
O438        C453   1.290       .  A
O439       Zr445   2.425       .  S
O439        C456   1.290       .  A
O440       Zr445   2.444       .  S
O440        C455   1.293       .  A
O441       Zr444   2.428       .  S
O441        C454   1.290       .  A
O442       Zr448   2.446       .  S
O442        C451   1.293       .  A
O443       Zr448   2.426       .  S
O443        C452   1.291       .  A
Zr444       O450   2.334   1_554  S
Zr444       O462   2.339   1_554  S
Zr445       O449   2.344       .  S
Zr445       O460   2.345       .  S
Zr446       O450   2.336       .  S
Zr446       O460   2.346       .  S
Zr447       O449   2.335       .  S
Zr447       O462   2.350       .  S
Zr448       O449   2.346       .  S
Zr448       O450   2.335       .  S
Zr448       O462   2.340       .  S
Zr448       O460   2.345       .  S
C451       C2165   1.471       .  S
C452       C1546   1.478       .  S
C453       C1109   1.485       .  S
C454       C1205   1.488       .  S
C455       C1253   1.488       .  S
C456       C1157   1.485       .  S
C457       C1181   1.490       .  S
C458       C1229   1.497       .  S
H459        O460   0.964       .  S
H461        O462   0.963       .  S
O463       Zr499   2.431       .  S
O463        C474   1.291       .  A
O464       Zr498   2.438       .  S
O464        C475   1.293       .  A
O465       Zr471   2.435       .  S
O465        C476   1.292       .  A
O466       Zr471   2.457       .  S
O466        C477   1.296       .  A
O467       Zr501   2.428       .  S
O467        C477   1.289       .  A
O468       Zr500   2.452       .  S
O468        C476   1.296       .  A
O469       Zr471   2.445       .  S
O469        C475   1.295       .  A
O470       Zr471   2.463       .  S
O470        C474   1.297   1_554  A
Zr471       O472   2.338       .  S
Zr471       O473   2.345       .  S
Zr471       O481   2.339       .  S
Zr471       O479   2.361       .  S
O472       Zr498   2.349       .  S
O472       Zr501   2.336       .  S
O473       Zr499   2.337   1_554  S
O473       Zr500   2.343       .  S
C474       C2357   1.492       .  S
C475       C1354   1.485       .  S
C476        C965   1.492       .  S
C477       C1061   1.501       .  S
H478        O479   0.962       .  S
O479       Zr498   2.349       .  S
O479       Zr500   2.329       .  S
H480        O481   0.964       .  S
O481       Zr499   2.347   1_554  S
O481       Zr501   2.325       .  S
O482       Zr498   2.461       .  S
O482        C505   1.296       .  A
O483       Zr499   2.440       .  S
O483        C506   1.293       .  A
O484       Zr500   2.451       .  S
O484        C507   1.295       .  A
O485       Zr501   2.436       .  S
O485        C508   1.291       .  A
O486       Zr501   2.441   1_556  S
O486        C509   1.292       .  A
O487       Zr500   2.445   1_556  S
O487        C510   1.294       .  A
O488       Zr502   2.436       .  S
O488        C511   1.293       .  A
O489       Zr502   2.453       .  S
O489        C512   1.296       .  A
O490       Zr500   2.432   1_556  S
O490        C511   1.291       .  A
O491       Zr501   2.419   1_556  S
O491        C512   1.288       .  A
O492       Zr498   2.444       .  S
O492        C507   1.293       .  A
O493       Zr499   2.445       .  S
O493        C510   1.293       .  A
O494       Zr499   2.430       .  S
O494        C509   1.290       .  A
O495       Zr498   2.417       .  S
O495        C508   1.288       .  A
O496       Zr502   2.455       .  S
O496        C505   1.296   1_556  A
O497       Zr502   2.443       .  S
O497        C506   1.293       .  A
Zr498       O504   2.330       .  S
Zr498       O516   2.341       .  S
Zr499       O503   2.339       .  S
Zr499       O514   2.331       .  S
Zr500       O504   2.350       .  S
Zr500       O514   2.337   1_554  S
Zr501       O503   2.343   1_554  S
Zr501       O516   2.328       .  S
Zr502       O503   2.336       .  S
Zr502       O504   2.348   1_556  S
Zr502       O516   2.335   1_556  S
Zr502       O514   2.350       .  S
C505       C2213   1.504       .  S
C506       C1498   1.492       .  S
C507        C946   1.493       .  S
C508       C1090   1.463       .  S
C509       C1037   1.471       .  S
C510        C989   1.497       .  S
C511        C922   1.483       .  S
C512       C1018   1.486       .  S
H513        O514   0.968       .  S
H515        O516   0.963       .  S
C517        C518   1.546   1_655  S
C517        C523   1.538       .  S
C517        C521   1.535       .  S
C517       C1858   1.547       .  S
C518        H525   1.085       .  S
C518        C519   1.377       .  D
C519        C520   1.541   1_455  S
C519        C994   1.504       .  S
C520        C524   1.538   1_655  S
C520        C522   1.544       .  S
C520        H526   1.101       .  S
C521        H527   1.086       .  S
C521        C522   1.369       .  D
C522       C1258   1.501       .  S
C523        H528   1.079   1_655  S
C523        C524   1.355   1_655  D
C524        C898   1.473       .  S
C529        C530   1.542       .  S
C529        C535   1.542       .  S
C529        C533   1.539   1_655  S
C529       C1618   1.538       .  S
C530        H537   1.086       .  S
C530        C531   1.364       .  D
C531        C532   1.534       .  S
C531       C1234   1.478       .  S
C532        C536   1.532       .  S
C532        C534   1.539   1_655  S
C532        H538   1.106       .  S
C533        H539   1.086       .  S
C533        C534   1.373       .  D
C534        C917   1.496       .  S
C535        H540   1.079       .  S
C535        C536   1.355       .  D
C536        C874   1.472       .  S
C541        C542   1.538       .  S
C541        C547   1.544       .  S
C541        C545   1.539       .  S
C541       C2914   1.537       .  S
C542        H549   1.085       .  S
C542        C543   1.366       .  D
C543        C544   1.535       .  S
C543       C1042   1.482       .  S
C544        C548   1.527       .  S
C544        C546   1.540       .  S
C544        H550   1.110       .  S
C545        H551   1.085       .  S
C545        C546   1.367       .  D
C546       C1162   1.488       .  S
C547        H552   1.081       .  S
C547        C548   1.361       .  D
C548        C850   1.475       .  S
C553        C554   1.551       .  S
C553        C559   1.532       .  S
C553        C557   1.538       .  S
C553       C2549   1.539       .  S
C554        H561   1.081       .  S
C554        C555   1.367       .  D
C555        C556   1.534       .  S
C555       C1138   1.482       .  S
C556        C560   1.539       .  S
C556        C558   1.540       .  S
C556        H562   1.111       .  S
C557        H563   1.086       .  S
C557        C558   1.368       .  D
C558       C1066   1.487       .  S
C559        H564   1.087       .  S
C559        C560   1.361       .  D
C560        C821   1.483       .  S
C565        C566   1.534   1_655  S
C565        C571   1.540       .  S
C565        C569   1.548       .  S
C565       C1594   1.547       .  S
C566        H573   1.086       .  S
C566        C567   1.371       .  D
C567        C568   1.545   1_455  S
C567        C941   1.503       .  S
C568        C572   1.539       .  S
C568        C570   1.537       .  S
C568        H574   1.111       .  S
C569        H575   1.084       .  S
C569        C570   1.371       .  D
C570       C1210   1.482       .  S
C571        H576   1.085       .  S
C571        C572   1.360       .  D
C572        C797   1.486       .  S
C577        C578   1.547       .  S
C577        C583   1.530       .  S
C577        C581   1.539   1_655  S
C577       C1829   1.539       .  S
C578        H585   1.078       .  S
C578        C579   1.370       .  D
C579        C580   1.539       .  S
C579       C1282   1.495       .  S
C580        C584   1.537       .  S
C580        C582   1.536   1_655  S
C580        H586   1.108       .  S
C581        H587   1.086       .  S
C581        C582   1.366       .  D
C582        C970   1.485       .  S
C583        H588   1.087       .  S
C583        C584   1.359       .  D
C584        C773   1.470       .  S
C589        C590   1.531       .  S
C589        C595   1.536       .  S
C589        C593   1.545       .  S
C589       C2890   1.541       .  S
C590        H597   1.086       .  S
C590        C591   1.364       .  D
C591        C592   1.543       .  S
C591       C1186   1.486       .  S
C592        C596   1.542       .  S
C592        C594   1.544       .  S
C592        H598   1.110       .  S
C593        H599   1.084       .  S
C593        C594   1.371       .  D
C594       C1013   1.492       .  S
C595        H600   1.086       .  S
C595        C596   1.360       .  D
C596        C754   1.486       .  S
C601        C602   1.535       .  S
C601        C607   1.537       .  S
C601        C605   1.546       .  S
C601       C2530   1.534       .  S
C602        H609   1.086       .  S
C602        C603   1.368       .  D
C603        C604   1.539       .  S
C603       C1085   1.489       .  S
C604        C608   1.533       .  S
C604        C606   1.533       .  S
C604        H610   1.107       .  S
C605        H611   1.082       .  S
C605        C606   1.363       .  D
C606       C1114   1.477       .  S
C607        H612   1.086       .  S
C607        C608   1.365       .  D
C608        C725   1.487       .  S
O613       Zr649   2.476       .  S
O613        C624   1.298       .  A
O614       Zr648   2.449       .  S
O614        C625   1.294       .  A
O615       Zr621   2.451       .  S
O615        C626   1.294       .  A
O616       Zr621   2.478       .  S
O616        C627   1.299       .  A
O617       Zr651   2.405       .  S
O617        C627   1.286       .  A
O618       Zr650   2.428       .  S
O618        C626   1.291       .  A
O619       Zr621   2.425       .  S
O619        C625   1.289       .  A
O620       Zr621   2.406       .  S
O620        C624   1.285       .  A
Zr621       O622   2.324       .  S
Zr621       O623   2.346       .  S
Zr621       O631   2.334       .  S
Zr621       O629   2.353       .  S
O622       Zr648   2.340       .  S
O622       Zr651   2.328       .  S
O623       Zr649   2.337       .  S
O623       Zr650   2.324       .  S
C624       C2722   1.472       .  S
C625        C730   1.470       .  S
C626       C2141   1.477       .  S
C627       C1426   1.491       .  S
H628        O629   0.966       .  S
O629       Zr648   2.353       .  S
O629       Zr650   2.352       .  S
H630        O631   0.968       .  S
O631       Zr649   2.336       .  S
O631       Zr651   2.345       .  S
O632       Zr648   2.494       .  S
O632        C655   1.302       .  A
O633       Zr649   2.470       .  S
O633        C656   1.298       .  A
O634       Zr650   2.447       .  S
O634        C657   1.294       .  A
O635       Zr651   2.484       .  S
O635        C658   1.300       .  A
O636       Zr651   2.459       .  S
O636        C659   1.294       .  A
O637       Zr650   2.502       .  S
O637        C660   1.304       .  A
O638       Zr652   2.485       .  S
O638        C661   1.300       .  A
O639       Zr652   2.451       .  S
O639        C662   1.293       .  A
O640       Zr650   2.390       .  S
O640        C661   1.282       .  A
O641       Zr651   2.429       .  S
O641        C662   1.291       .  A
O642       Zr648   2.428       .  S
O642        C657   1.291       .  A
O643       Zr649   2.395       .  S
O643        C660   1.284       .  A
O644       Zr649   2.416       .  S
O644        C659   1.288       .  A
O645       Zr648   2.405       .  S
O645        C658   1.287       .  A
O646       Zr652   2.399       .  S
O646        C655   1.285       .  A
O647       Zr652   2.401       .  S
O647        C656   1.287       .  A
Zr648       O654   2.329       .  S
Zr648       O666   2.334       .  S
Zr649       O653   2.348       .  S
Zr649       O664   2.337       .  S
Zr650       O654   2.346       .  S
Zr650       O664   2.332       .  S
Zr651       O653   2.350       .  S
Zr651       O666   2.338       .  S
Zr652       O653   2.351       .  S
Zr652       O654   2.329       .  S
Zr652       O666   2.346       .  S
Zr652       O664   2.331       .  S
C655       C2098   1.485       .  S
C656        C845   1.495       .  S
C657       C1378   1.478       .  S
C658        C826   1.487       .  S
C659       C1565   1.467       .  S
C660        C749   1.488       .  S
C661       C1517   1.498       .  S
C662       C2290   1.468       .  S
H663        O664   0.965       .  S
H665        O666   0.964       .  S
O667       Zr703   2.485       .  S
O667        C678   1.299       .  A
O668       Zr702   2.447   1_455  S
O668        C679   1.292       .  A
O669       Zr675   2.468       .  S
O669        C680   1.297       .  A
O670       Zr675   2.440   1_545  S
O670        C681   1.292       .  A
O671       Zr705   2.433   1_556  S
O671        C681   1.292       .  A
O672       Zr704   2.390       .  S
O672        C680   1.285   1_655  A
O673       Zr675   2.413   1_545  S
O673        C679   1.287       .  A
O674       Zr675   2.403       .  S
O674        C678   1.287   1_556  A
Zr675       O676   2.345   1_565  S
Zr675       O677   2.321       .  S
Zr675       O685   2.342   1_566  S
Zr675       O683   2.336   1_455  S
O676       Zr702   2.339   1_455  S
O676       Zr705   2.338   1_556  S
O677       Zr703   2.329   1_556  S
O677       Zr704   2.343   1_455  S
C678       C2381   1.495       .  S
C679       C1301   1.462       .  S
C680        C893   1.477       .  S
C681       C2237   1.474       .  S
H682        O683   0.963       .  S
O683       Zr702   2.343   1_565  S
O683       Zr704   2.333       .  S
H684        O685   0.967       .  S
O685       Zr703   2.335   1_545  S
O685       Zr705   2.339       .  S
O686       Zr702   2.466       .  S
O686        C709   1.296       .  A
O687       Zr703   2.448   1_655  S
O687        C710   1.294   1_565  A
O688       Zr704   2.505       .  S
O688        C711   1.304       .  A
O689       Zr705   2.462   1_556  S
O689        C712   1.296       .  A
O690       Zr705   2.467       .  S
O690        C713   1.296       .  A
O691       Zr704   2.458   1_554  S
O691        C714   1.295       .  A
O692       Zr706   2.468       .  S
O692        C715   1.297   1_545  A
O693       Zr706   2.476       .  S
O693        C716   1.300       .  A
O694       Zr704   2.416       .  S
O694        C715   1.290   1_556  A
O695       Zr705   2.409       .  S
O695        C716   1.287   1_455  A
O696       Zr702   2.394       .  S
O696        C711   1.283   1_545  A
O697       Zr703   2.413   1_655  S
O697        C714   1.287       .  A
O698       Zr703   2.407   1_545  S
O698        C713   1.286       .  A
O699       Zr702   2.413       .  S
O699        C712   1.289   1_655  A
O700       Zr706   2.411       .  S
O700        C709   1.286   1_554  A
O701       Zr706   2.420       .  S
O701        C710   1.290       .  A
Zr702       O708   2.331       .  S
Zr702       O720   2.328       .  S
Zr703       O707   2.339   1_465  S
Zr703       O718   2.357   1_455  S
Zr704       O708   2.326   1_565  S
Zr704       O718   2.357   1_556  S
Zr705       O707   2.337   1_455  S
Zr705       O720   2.348   1_454  S
Zr706       O707   2.337       .  S
Zr706       O708   2.339   1_554  S
Zr706       O720   2.343   1_554  S
Zr706       O718   2.349   1_545  S
C709       C2189   1.470       .  S
C710       C1474   1.484       .  S
C711       C1450   1.502       .  S
C712        C869   1.488       .  S
C713       C1325   1.470       .  S
C714        C778   1.465       .  S
C715       C2333   1.493       .  S
C716        C802   1.483       .  S
H717        O718   0.968       .  S
H719        O720   0.966       .  S
C721        C722   1.411       .  A
C721        C726   1.396       .  A
C721        C735   1.445       .  S
C722        C727   1.484       .  S
C722        C723   1.401       .  A
C723        C724   1.401       .  A
C723        H742   1.085       .  S
C724        C725   1.416       .  A
C724        C736   1.443       .  S
C725        C726   1.404       .  A
C726        H741   1.085       .  S
C727        C728   1.403       .  A
C727        C732   1.413       .  A
C728        C729   1.399       .  A
C728        H743   1.085       .  S
C729        C730   1.412       .  A
C729        C733   1.445       .  S
C730        C731   1.398       .  A
C731        C732   1.398       .  A
C731        H744   1.082       .  S
C732        C734   1.444       .  S
C733        N737   1.157       .  T
C734        N738   1.157       .  T
C735        N740   1.157       .  T
C736        N739   1.157       .  T
C745        C746   1.415       .  A
C745        C750   1.411       .  A
C745        C759   1.443       .  S
C746        C751   1.496       .  S
C746        C747   1.399       .  A
C747        C748   1.396       .  A
C747        H766   1.085       .  S
C748        C749   1.418       .  A
C748        C760   1.443       .  S
C749        C750   1.407       .  A
C750        H765   1.085       .  S
C751        C752   1.401       .  A
C751        C756   1.419       .  A
C752        C753   1.398       .  A
C752        H767   1.084       .  S
C753        C754   1.414       .  A
C753        C757   1.444       .  S
C754        C755   1.401       .  A
C755        C756   1.406       .  A
C755        H768   1.084       .  S
C756        C758   1.444       .  S
C757        N761   1.157       .  T
C758        N762   1.157       .  T
C759        N764   1.157       .  T
C760        N763   1.157       .  T
C769        C770   1.412       .  A
C769        C774   1.398       .  A
C769        C783   1.444       .  S
C770        C775   1.486       .  S
C770        C771   1.406   1_655  A
C771        C772   1.398       .  A
C771        H790   1.084       .  S
C772        C773   1.405   1_455  A
C772        C784   1.444       .  S
C773        C774   1.400       .  A
C774        H789   1.085       .  S
C775        C776   1.407       .  A
C775        C780   1.412       .  A
C776        C777   1.398       .  A
C776        H791   1.084       .  S
C777        C778   1.405       .  A
C777        C781   1.444       .  S
C778        C779   1.402       .  A
C779        C780   1.398       .  A
C779        H792   1.083   1_655  S
C780        C782   1.445   1_655  S
C781        N785   1.157       .  T
C782        N786   1.157       .  T
C783        N788   1.157       .  T
C784        N787   1.157       .  T
C793        C794   1.413       .  A
C793        C798   1.403       .  A
C793        C807   1.443   1_655  S
C794        C799   1.486       .  S
C794        C795   1.400       .  A
C795        C796   1.399       .  A
C795        H814   1.085       .  S
C796        C797   1.416       .  A
C796        C808   1.444       .  S
C797        C798   1.401       .  A
C798        H813   1.084   1_655  S
C799        C800   1.400       .  A
C799        C804   1.411       .  A
C800        C801   1.397       .  A
C800        H815   1.085   1_655  S
C801        C802   1.418       .  A
C801        C805   1.444   1_655  S
C802        C803   1.406       .  A
C803        C804   1.405       .  A
C803        H816   1.085       .  S
C804        C806   1.443       .  S
C805        N809   1.157       .  T
C806        N810   1.157       .  T
C807        N812   1.157       .  T
C808        N811   1.157       .  T
C817        C818   1.410       .  A
C817        C822   1.404       .  A
C817        C831   1.442       .  S
C818        C823   1.484       .  S
C818        C819   1.402       .  A
C819        C820   1.399       .  A
C819        H838   1.085       .  S
C820        C821   1.412       .  A
C820        C832   1.444       .  S
C821        C822   1.404       .  A
C822        H837   1.085       .  S
C823        C824   1.408       .  A
C823        C828   1.405       .  A
C824        C825   1.410       .  A
C824        H839   1.084       .  S
C825        C826   1.410       .  A
C825        C829   1.442       .  S
C826        C827   1.409       .  A
C827        C828   1.395       .  A
C827        H840   1.083       .  S
C828        C830   1.445       .  S
C829        N833   1.157       .  T
C830        N834   1.157       .  T
C831        N836   1.157       .  T
C832        N835   1.157       .  T
C841        C842   1.406       .  A
C841        C846   1.393       .  A
C841        C855   1.446       .  S
C842        C847   1.479       .  S
C842        C843   1.402       .  A
C843        C844   1.407       .  A
C843        H862   1.084       .  S
C844        C845   1.418       .  A
C844        C856   1.442       .  S
C845        C846   1.412       .  A
C846        H861   1.084       .  S
C847        C848   1.405       .  A
C847        C852   1.408       .  A
C848        C849   1.404       .  A
C848        H863   1.085       .  S
C849        C850   1.410       .  A
C849        C853   1.444       .  S
C850        C851   1.400       .  A
C851        C852   1.394       .  A
C851        H864   1.085       .  S
C852        C854   1.443       .  S
C853        N857   1.157       .  T
C854        N858   1.157       .  T
C855        N860   1.157       .  T
C856        N859   1.157       .  T
C865        C866   1.407       .  A
C865        C870   1.395       .  A
C865        C879   1.446       .  S
C866        C871   1.479       .  S
C866        C867   1.401       .  A
C867        C868   1.405       .  A
C867        H886   1.085       .  S
C868        C869   1.417       .  A
C868        C880   1.442       .  S
C869        C870   1.409       .  A
C870        H885   1.085       .  S
C871        C872   1.404   1_455  A
C871        C876   1.407       .  A
C872        C873   1.399       .  A
C872        H887   1.085       .  S
C873        C874   1.406       .  A
C873        C877   1.442       .  S
C874        C875   1.404   1_655  A
C875        C876   1.398       .  A
C875        H888   1.085       .  S
C876        C878   1.443       .  S
C877        N881   1.157       .  T
C878        N882   1.157       .  T
C879        N884   1.157   1_455  T
C880        N883   1.157   1_556  T
C889        C890   1.409       .  A
C889        C894   1.389       .  A
C889        C903   1.446   1_455  S
C890        C895   1.487       .  S
C890        C891   1.411       .  A
C891        C892   1.407       .  A
C891        H910   1.084       .  S
C892        C893   1.407       .  A
C892        C904   1.443       .  S
C893        C894   1.405       .  A
C894        H909   1.083   1_455  S
C895        C896   1.407   1_455  A
C895        C900   1.411       .  A
C896        C897   1.395       .  A
C896        H911   1.085       .  S
C897        C898   1.405   1_655  A
C897        C901   1.444       .  S
C898        C899   1.404       .  A
C899        C900   1.402       .  A
C899        H912   1.085       .  S
C900        C902   1.444       .  S
C901        N905   1.157       .  T
C902        N906   1.157       .  T
C903        N908   1.157       .  T
C904        N907   1.157       .  T
C913        C914   1.405       .  A
C913        C918   1.398       .  A
C913        C927   1.444       .  S
C914        C919   1.476       .  S
C914        C915   1.397       .  A
C915        C916   1.397       .  A
C915        H934   1.086       .  S
C916        C917   1.421       .  A
C916        C928   1.441       .  S
C917        C918   1.410       .  A
C918        H933   1.084       .  S
C919        C920   1.399       .  A
C919        C924   1.407       .  A
C920        C921   1.400       .  A
C920        H935   1.085       .  S
C921        C922   1.419       .  A
C921        C925   1.445       .  S
C922        C923   1.406       .  A
C923        C924   1.396       .  A
C923        H936   1.085       .  S
C924        C926   1.445       .  S
C925        N929   1.157       .  T
C926        N930   1.157       .  T
C927        N932   1.157       .  T
C928        N931   1.157       .  T
C937        C938   1.415       .  A
C937        C942   1.411       .  A
C937        C951   1.444       .  S
C938        C943   1.499       .  S
C938        C939   1.401       .  A
C939        C940   1.399       .  A
C939        H958   1.085       .  S
C940        C941   1.417       .  A
C940        C952   1.443       .  S
C941        C942   1.409       .  A
C942        H957   1.083       .  S
C943        C944   1.406       .  A
C943        C948   1.414       .  A
C944        C945   1.403       .  A
C944        H959   1.085       .  S
C945        C946   1.414       .  A
C945        C949   1.444       .  S
C946        C947   1.409       .  A
C947        C948   1.406       .  A
C947        H960   1.085       .  S
C948        C950   1.444       .  S
C949        N953   1.157       .  T
C950        N954   1.157       .  T
C951        N956   1.157       .  T
C952        N955   1.157       .  T
C961        C962   1.409       .  A
C961        C966   1.401       .  A
C961        C975   1.443       .  S
C962        C967   1.487       .  S
C962        C963   1.403       .  A
C963        C964   1.404       .  A
C963        H982   1.085       .  S
C964        C965   1.419       .  A
C964        C976   1.445       .  S
C965        C966   1.407       .  A
C966        H981   1.085       .  S
C967        C968   1.403       .  A
C967        C972   1.412       .  A
C968        C969   1.401       .  A
C968        H983   1.085       .  S
C969        C970   1.412       .  A
C969        C973   1.444       .  S
C970        C971   1.402       .  A
C971        C972   1.402       .  A
C971        H984   1.084       .  S
C972        C974   1.443       .  S
C973        N977   1.157       .  T
C974        N978   1.157       .  T
C975        N980   1.157       .  T
C976        N979   1.158       .  T
C985        C986   1.412       .  A
C985        C990   1.403       .  A
C985        C999   1.445       .  S
C986        C991   1.492       .  S
C986        C987   1.401       .  A
C987        C988   1.401       .  A
C987       H1006   1.085       .  S
C988        C989   1.420       .  A
C988       C1000   1.444       .  S
C989        C990   1.410       .  A
C990       H1005   1.085       .  S
C991        C992   1.399       .  A
C991        C996   1.411       .  A
C992        C993   1.400       .  A
C992       H1007   1.085       .  S
C993        C994   1.423       .  A
C993        C997   1.442       .  S
C994        C995   1.410       .  A
C995        C996   1.403       .  A
C995       H1008   1.084       .  S
C996        C998   1.444       .  S
C997       N1001   1.157       .  T
C998       N1002   1.157       .  T
C999       N1004   1.157       .  T
C1000      N1003   1.157       .  T
C1009      C1010   1.409       .  A
C1009      C1014   1.401       .  A
C1009      C1023   1.444       .  S
C1010      C1015   1.485       .  S
C1010      C1011   1.401       .  A
C1011      C1012   1.401       .  A
C1011      H1030   1.085       .  S
C1012      C1013   1.414       .  A
C1012      C1024   1.442       .  S
C1013      C1014   1.408       .  A
C1014      H1029   1.084       .  S
C1015      C1016   1.400       .  A
C1015      C1020   1.410       .  A
C1016      C1017   1.400       .  A
C1016      H1031   1.085       .  S
C1017      C1018   1.420       .  A
C1017      C1021   1.446       .  S
C1018      C1019   1.406       .  A
C1019      C1020   1.400       .  A
C1019      H1032   1.085       .  S
C1020      C1022   1.443       .  S
C1021      N1025   1.158       .  T
C1022      N1026   1.157       .  T
C1023      N1028   1.157       .  T
C1024      N1027   1.157       .  T
C1033      C1034   1.412       .  A
C1033      C1038   1.399       .  A
C1033      C1047   1.444       .  S
C1034      C1039   1.486       .  S
C1034      C1035   1.405       .  A
C1035      C1036   1.400       .  A
C1035      H1054   1.085       .  S
C1036      C1037   1.410       .  A
C1036      C1048   1.444       .  S
C1037      C1038   1.402       .  A
C1038      H1053   1.085       .  S
C1039      C1040   1.405       .  A
C1039      C1044   1.411       .  A
C1040      C1041   1.399       .  A
C1040      H1055   1.085       .  S
C1041      C1042   1.413       .  A
C1041      C1045   1.444       .  S
C1042      C1043   1.403       .  A
C1043      C1044   1.398       .  A
C1043      H1056   1.085       .  S
C1044      C1046   1.444       .  S
C1045      N1049   1.157       .  T
C1046      N1050   1.157       .  T
C1047      N1052   1.157       .  T
C1048      N1051   1.157       .  T
C1057      C1058   1.408       .  A
C1057      C1062   1.402       .  A
C1057      C1071   1.443       .  S
C1058      C1063   1.488       .  S
C1058      C1059   1.400       .  A
C1059      C1060   1.403       .  A
C1059      H1078   1.085       .  S
C1060      C1061   1.425       .  A
C1060      C1072   1.445       .  S
C1061      C1062   1.410       .  A
C1062      H1077   1.084       .  S
C1063      C1064   1.405       .  A
C1063      C1068   1.409       .  A
C1064      C1065   1.406       .  A
C1064      H1079   1.085       .  S
C1065      C1066   1.413       .  A
C1065      C1069   1.444       .  S
C1066      C1067   1.404       .  A
C1067      C1068   1.399       .  A
C1067      H1080   1.085       .  S
C1068      C1070   1.444       .  S
C1069      N1073   1.157       .  T
C1070      N1074   1.157       .  T
C1071      N1076   1.157       .  T
C1072      N1075   1.158       .  T
C1081      C1082   1.407       .  A
C1081      C1086   1.400       .  A
C1081      C1095   1.444       .  S
C1082      C1087   1.476       .  S
C1082      C1083   1.396       .  A
C1083      C1084   1.393       .  A
C1083      H1102   1.086       .  S
C1084      C1085   1.418       .  A
C1084      C1096   1.441       .  S
C1085      C1086   1.409       .  A
C1086      H1101   1.084       .  S
C1087      C1088   1.401       .  A
C1087      C1092   1.411       .  A
C1088      C1089   1.396       .  A
C1088      H1103   1.085       .  S
C1089      C1090   1.411       .  A
C1089      C1093   1.444       .  S
C1090      C1091   1.400       .  A
C1091      C1092   1.396       .  A
C1091      H1104   1.085       .  S
C1092      C1094   1.444       .  S
C1093      N1097   1.157       .  T
C1094      N1098   1.157       .  T
C1095      N1100   1.157       .  T
C1096      N1099   1.157       .  T
C1105      C1106   1.408       .  A
C1105      C1110   1.400       .  A
C1105      C1119   1.444       .  S
C1106      C1111   1.478       .  S
C1106      C1107   1.399       .  A
C1107      C1108   1.398       .  A
C1107      H1126   1.085       .  S
C1108      C1109   1.418       .  A
C1108      C1120   1.445       .  S
C1109      C1110   1.408       .  A
C1110      H1125   1.084       .  S
C1111      C1112   1.401       .  A
C1111      C1116   1.410       .  A
C1112      C1113   1.398       .  A
C1112      H1127   1.085       .  S
C1113      C1114   1.412       .  A
C1113      C1117   1.444       .  S
C1114      C1115   1.402       .  A
C1115      C1116   1.400       .  A
C1115      H1128   1.085       .  S
C1116      C1118   1.443       .  S
C1117      N1121   1.157       .  T
C1118      N1122   1.157       .  T
C1119      N1124   1.157       .  T
C1120      N1123   1.157       .  T
C1129      C1130   1.413       .  A
C1129      C1134   1.402       .  A
C1129      C1143   1.444       .  S
C1130      C1135   1.492       .  S
C1130      C1131   1.405       .  A
C1131      C1132   1.401       .  A
C1131      H1150   1.085       .  S
C1132      C1133   1.411       .  A
C1132      C1144   1.443       .  S
C1133      C1134   1.404       .  A
C1134      H1149   1.085       .  S
C1135      C1136   1.406       .  A
C1135      C1140   1.414       .  A
C1136      C1137   1.402       .  A
C1136      H1151   1.085       .  S
C1137      C1138   1.409       .  A
C1137      C1141   1.444       .  S
C1138      C1139   1.402       .  A
C1139      C1140   1.401       .  A
C1139      H1152   1.085       .  S
C1140      C1142   1.444       .  S
C1141      N1145   1.157       .  T
C1142      N1146   1.157       .  T
C1143      N1148   1.157       .  T
C1144      N1147   1.157       .  T
C1153      C1154   1.410       .  A
C1153      C1158   1.400       .  A
C1153      C1167   1.444       .  S
C1154      C1159   1.482       .  S
C1154      C1155   1.400       .  A
C1155      C1156   1.398       .  A
C1155      H1174   1.085       .  S
C1156      C1157   1.419       .  A
C1156      C1168   1.445       .  S
C1157      C1158   1.407       .  A
C1158      H1173   1.085       .  S
C1159      C1160   1.401       .  A
C1159      C1164   1.409       .  A
C1160      C1161   1.401       .  A
C1160      H1175   1.085       .  S
C1161      C1162   1.416       .  A
C1161      C1165   1.443       .  S
C1162      C1163   1.405       .  A
C1163      C1164   1.397       .  A
C1163      H1176   1.084       .  S
C1164      C1166   1.444       .  S
C1165      N1169   1.157       .  T
C1166      N1170   1.157       .  T
C1167      N1172   1.157       .  T
C1168      N1171   1.157       .  T
C1177      C1178   1.411       .  A
C1177      C1182   1.403       .  A
C1177      C1191   1.443       .  S
C1178      C1183   1.490       .  S
C1178      C1179   1.402       .  A
C1179      C1180   1.403       .  A
C1179      H1198   1.085       .  S
C1180      C1181   1.417       .  A
C1180      C1192   1.444       .  S
C1181      C1182   1.407       .  A
C1182      H1197   1.085       .  S
C1183      C1184   1.403       .  A
C1183      C1188   1.413       .  A
C1184      C1185   1.402       .  A
C1184      H1199   1.085       .  S
C1185      C1186   1.413       .  A
C1185      C1189   1.445       .  S
C1186      C1187   1.401       .  A
C1187      C1188   1.404       .  A
C1187      H1200   1.085       .  S
C1188      C1190   1.443       .  S
C1189      N1193   1.157       .  T
C1190      N1194   1.157       .  T
C1191      N1196   1.157       .  T
C1192      N1195   1.157       .  T
C1201      C1202   1.408       .  A
C1201      C1206   1.400       .  A
C1201      C1215   1.444       .  S
C1202      C1207   1.482       .  S
C1202      C1203   1.400       .  A
C1203      C1204   1.402       .  A
C1203      H1222   1.085       .  S
C1204      C1205   1.419       .  A
C1204      C1216   1.444       .  S
C1205      C1206   1.405       .  A
C1206      H1221   1.080       .  S
C1207      C1208   1.401       .  A
C1207      C1212   1.410       .  A
C1208      C1209   1.400       .  A
C1208      H1223   1.085       .  S
C1209      C1210   1.410       .  A
C1209      C1213   1.441       .  S
C1210      C1211   1.404       .  A
C1211      C1212   1.401       .  A
C1211      H1224   1.085       .  S
C1212      C1214   1.444       .  S
C1213      N1217   1.157       .  T
C1214      N1218   1.157       .  T
C1215      N1220   1.157       .  T
C1216      N1219   1.157       .  T
C1225      C1226   1.409       .  A
C1225      C1230   1.402       .  A
C1225      C1239   1.444       .  S
C1226      C1231   1.488       .  S
C1226      C1227   1.401       .  A
C1227      C1228   1.400       .  A
C1227      H1246   1.085       .  S
C1228      C1229   1.422       .  A
C1228      C1240   1.444       .  S
C1229      C1230   1.410       .  A
C1230      H1245   1.084       .  S
C1231      C1232   1.403       .  A
C1231      C1236   1.413       .  A
C1232      C1233   1.398       .  A
C1232      H1247   1.085       .  S
C1233      C1234   1.408       .  A
C1233      C1237   1.442       .  S
C1234      C1235   1.401       .  A
C1235      C1236   1.403       .  A
C1235      H1248   1.081       .  S
C1236      C1238   1.444       .  S
C1237      N1241   1.157       .  T
C1238      N1242   1.157       .  T
C1239      N1244   1.157       .  T
C1240      N1243   1.157       .  T
C1249      C1250   1.414       .  A
C1249      C1254   1.403       .  A
C1249      C1263   1.445       .  S
C1250      C1255   1.495       .  S
C1250      C1251   1.405       .  A
C1251      C1252   1.403       .  A
C1251      H1270   1.084       .  S
C1252      C1253   1.414       .  A
C1252      C1264   1.444       .  S
C1253      C1254   1.406       .  A
C1254      H1269   1.085       .  S
C1255      C1256   1.405       .  A
C1255      C1260   1.411       .  A
C1256      C1257   1.404       .  A
C1256      H1271   1.085       .  S
C1257      C1258   1.417       .  A
C1257      C1261   1.442       .  S
C1258      C1259   1.409       .  A
C1259      C1260   1.399       .  A
C1259      H1272   1.084       .  S
C1260      C1262   1.444       .  S
C1261      N1265   1.157       .  T
C1262      N1266   1.157       .  T
C1263      N1268   1.157       .  T
C1264      N1267   1.157       .  T
C1273      C1274   1.406       .  A
C1273      C1278   1.397       .  A
C1273      C1287   1.445       .  S
C1274      C1279   1.479       .  S
C1274      C1275   1.401       .  A
C1275      C1276   1.399       .  A
C1275      H1294   1.085       .  S
C1276      C1277   1.419       .  A
C1276      C1288   1.445       .  S
C1277      C1278   1.409       .  A
C1278      H1293   1.084       .  S
C1279      C1280   1.400       .  A
C1279      C1284   1.405       .  A
C1280      C1281   1.399       .  A
C1280      H1295   1.085       .  S
C1281      C1282   1.418       .  A
C1281      C1285   1.441       .  S
C1282      C1283   1.410       .  A
C1283      C1284   1.397       .  A
C1283      H1296   1.084       .  S
C1284      C1286   1.444       .  S
C1285      N1289   1.157       .  T
C1286      N1290   1.157       .  T
C1287      N1292   1.157       .  T
C1288      N1291   1.158       .  T
C1297      C1298   1.408       .  A
C1297      C1302   1.396       .  A
C1297      C1311   1.443   1_545  S
C1298      C1303   1.476       .  S
C1298      C1299   1.404       .  A
C1299      C1300   1.400       .  A
C1299      H1318   1.085       .  S
C1300      C1301   1.407       .  A
C1300      C1312   1.444       .  S
C1301      C1302   1.400       .  A
C1302      H1317   1.085       .  S
C1303      C1304   1.397       .  A
C1303      C1308   1.405   1_545  A
C1304      C1305   1.401       .  A
C1304      H1319   1.085       .  S
C1305      C1306   1.422       .  A
C1305      C1309   1.440       .  S
C1306      C1307   1.411   1_545  A
C1307      C1308   1.396       .  A
C1307      H1320   1.084       .  S
C1308      C1310   1.445       .  S
C1309      N1313   1.157       .  T
C1310      N1314   1.157       .  T
C1311      N1316   1.157       .  T
C1312      N1315   1.157       .  T
C1321      C1322   1.412       .  A
C1321      C1326   1.400       .  A
C1321      C1335   1.445       .  S
C1322      C1327   1.482       .  S
C1322      C1323   1.401       .  A
C1323      C1324   1.401       .  A
C1323      H1342   1.085       .  S
C1324      C1325   1.412       .  A
C1324      C1336   1.444       .  S
C1325      C1326   1.402       .  A
C1326      H1341   1.085       .  S
C1327      C1328   1.401       .  A
C1327      C1332   1.412       .  A
C1328      C1329   1.401       .  A
C1328      H1343   1.085       .  S
C1329      C1330   1.412       .  A
C1329      C1333   1.444       .  S
C1330      C1331   1.399   1_545  A
C1331      C1332   1.399   1_565  A
C1331      H1344   1.084       .  S
C1332      C1334   1.444   1_545  S
C1333      N1337   1.157       .  T
C1334      N1338   1.157       .  T
C1335      N1340   1.157       .  T
C1336      N1339   1.157   1_455  T
C1345      C1346   1.405       .  A
C1345      C1350   1.401       .  A
C1345      C1359   1.445       .  S
C1346      C1351   1.481       .  S
C1346      C1347   1.398       .  A
C1347      C1348   1.399       .  A
C1347      H1366   1.085       .  S
C1348      C1349   1.422       .  A
C1348      C1360   1.444       .  S
C1349      C1350   1.415       .  A
C1350      H1365   1.078       .  S
C1351      C1352   1.399       .  A
C1351      C1356   1.409       .  A
C1352      C1353   1.398       .  A
C1352      H1367   1.085       .  S
C1353      C1354   1.417       .  A
C1353      C1357   1.445       .  S
C1354      C1355   1.407       .  A
C1355      C1356   1.401       .  A
C1355      H1368   1.085       .  S
C1356      C1358   1.443       .  S
C1357      N1361   1.157       .  T
C1358      N1362   1.157       .  T
C1359      N1364   1.157       .  T
C1360      N1363   1.157       .  T
C1369      C1370   1.410       .  A
C1369      C1374   1.397       .  A
C1369      C1383   1.444       .  S
C1370      C1375   1.482       .  S
C1370      C1371   1.405       .  A
C1371      C1372   1.404       .  A
C1371      H1390   1.085       .  S
C1372      C1373   1.408       .  A
C1372      C1384   1.444       .  S
C1373      C1374   1.400       .  A
C1374      H1389   1.085       .  S
C1375      C1376   1.401       .  A
C1375      C1380   1.409       .  A
C1376      C1377   1.395       .  A
C1376      H1391   1.085       .  S
C1377      C1378   1.412       .  A
C1377      C1381   1.442       .  S
C1378      C1379   1.407       .  A
C1379      C1380   1.404       .  A
C1379      H1392   1.085       .  S
C1380      C1382   1.443       .  S
C1381      N1385   1.156       .  T
C1382      N1386   1.157       .  T
C1383      N1388   1.157       .  T
C1384      N1387   1.157       .  T
C1393      C1394   1.406       .  A
C1393      C1398   1.403       .  A
C1393      C1407   1.444       .  S
C1394      C1399   1.481       .  S
C1394      C1395   1.395       .  A
C1395      C1396   1.398       .  A
C1395      H1414   1.085       .  S
C1396      C1397   1.426       .  A
C1396      C1408   1.445       .  S
C1397      C1398   1.412       .  A
C1398      H1413   1.078       .  S
C1399      C1400   1.404       .  A
C1399      C1404   1.409       .  A
C1400      C1401   1.401       .  A
C1400      H1415   1.085       .  S
C1401      C1402   1.409       .  A
C1401      C1405   1.444       .  S
C1402      C1403   1.403       .  A
C1403      C1404   1.399       .  A
C1403      H1416   1.084       .  S
C1404      C1406   1.443       .  S
C1405      N1409   1.157       .  T
C1406      N1410   1.157       .  T
C1407      N1412   1.157       .  T
C1408      N1411   1.157       .  T
C1417      C1418   1.412       .  A
C1417      C1422   1.406       .  A
C1417      C1431   1.443       .  S
C1418      C1423   1.487       .  S
C1418      C1419   1.404       .  A
C1419      C1420   1.395       .  A
C1419      H1438   1.085       .  S
C1420      C1421   1.409       .  A
C1420      C1432   1.444       .  S
C1421      C1422   1.404       .  A
C1422      H1437   1.084       .  S
C1423      C1424   1.395       .  A
C1423      C1428   1.414       .  A
C1424      C1425   1.390       .  A
C1424      H1439   1.086       .  S
C1425      C1426   1.423       .  A
C1425      C1429   1.445       .  S
C1426      C1427   1.408       .  A
C1427      C1428   1.408       .  A
C1427      H1440   1.084       .  S
C1428      C1430   1.442       .  S
C1429      N1433   1.157       .  T
C1430      N1434   1.157       .  T
C1431      N1436   1.157       .  T
C1432      N1435   1.157       .  T
C1441      C1442   1.412       .  A
C1441      C1446   1.407       .  A
C1441      C1455   1.443       .  S
C1442      C1447   1.486       .  S
C1442      C1443   1.402   1_565  A
C1443      C1444   1.395       .  A
C1443      H1462   1.085       .  S
C1444      C1445   1.411       .  A
C1444      C1456   1.444       .  S
C1445      C1446   1.404   1_545  A
C1446      H1461   1.082       .  S
C1447      C1448   1.391   1_565  A
C1447      C1452   1.412       .  A
C1448      C1449   1.391       .  A
C1448      H1463   1.087       .  S
C1449      C1450   1.429   1_545  A
C1449      C1453   1.445       .  S
C1450      C1451   1.410       .  A
C1451      C1452   1.414       .  A
C1451      H1464   1.084       .  S
C1452      C1454   1.443       .  S
C1453      N1457   1.157       .  T
C1454      N1458   1.157       .  T
C1455      N1460   1.157       .  T
C1456      N1459   1.157       .  T
C1465      C1466   1.409       .  A
C1465      C1470   1.399       .  A
C1465      C1479   1.444       .  S
C1466      C1471   1.483       .  S
C1466      C1467   1.402   1_545  A
C1467      C1468   1.399       .  A
C1467      H1486   1.085       .  S
C1468      C1469   1.415   1_565  A
C1468      C1480   1.445       .  S
C1469      C1470   1.404       .  A
C1470      H1485   1.080       .  S
C1471      C1472   1.403   1_545  A
C1471      C1476   1.411       .  A
C1472      C1473   1.402       .  A
C1472      H1487   1.085       .  S
C1473      C1474   1.414   1_565  A
C1473      C1477   1.443       .  S
C1474      C1475   1.407       .  A
C1475      C1476   1.397       .  A
C1475      H1488   1.085       .  S
C1476      C1478   1.445       .  S
C1477      N1481   1.157       .  T
C1478      N1482   1.157       .  T
C1479      N1484   1.157       .  T
C1480      N1483   1.157       .  T
C1489      C1490   1.407       .  A
C1489      C1494   1.405       .  A
C1489      C1503   1.444       .  S
C1490      C1495   1.483       .  S
C1490      C1491   1.395       .  A
C1491      C1492   1.397       .  A
C1491      H1510   1.085       .  S
C1492      C1493   1.426       .  A
C1492      C1504   1.446       .  S
C1493      C1494   1.413       .  A
C1494      H1509   1.078       .  S
C1495      C1496   1.399       .  A
C1495      C1500   1.409       .  A
C1496      C1497   1.399       .  A
C1496      H1511   1.085       .  S
C1497      C1498   1.420       .  A
C1497      C1501   1.444       .  S
C1498      C1499   1.410       .  A
C1499      C1500   1.402       .  A
C1499      H1512   1.084       .  S
C1500      C1502   1.444       .  S
C1501      N1505   1.157       .  T
C1502      N1506   1.157       .  T
C1503      N1508   1.157       .  T
C1504      N1507   1.157       .  T
C1513      C1514   1.415       .  A
C1513      C1518   1.412       .  A
C1513      C1527   1.442       .  S
C1514      C1519   1.496       .  S
C1514      C1515   1.398       .  A
C1515      C1516   1.391       .  A
C1515      H1534   1.086       .  S
C1516      C1517   1.425       .  A
C1516      C1528   1.447       .  S
C1517      C1518   1.410       .  A
C1518      H1533   1.084       .  S
C1519      C1520   1.410       .  A
C1519      C1524   1.413       .  A
C1520      C1521   1.413       .  A
C1520      H1535   1.084       .  S
C1521      C1522   1.414       .  A
C1521      C1525   1.443       .  S
C1522      C1523   1.403       .  A
C1523      C1524   1.390       .  A
C1523      H1536   1.084       .  S
C1524      C1526   1.446       .  S
C1525      N1529   1.157       .  T
C1526      N1530   1.157       .  T
C1527      N1532   1.157       .  T
C1528      N1531   1.158       .  T
C1537      C1538   1.406       .  A
C1537      C1542   1.399       .  A
C1537      C1551   1.446       .  S
C1538      C1543   1.474       .  S
C1538      C1539   1.394       .  A
C1539      C1540   1.394       .  A
C1539      H1558   1.085       .  S
C1540      C1541   1.424       .  A
C1540      C1552   1.446       .  S
C1541      C1542   1.413       .  A
C1542      H1557   1.077       .  S
C1543      C1544   1.399       .  A
C1543      C1548   1.407       .  A
C1544      C1545   1.394       .  A
C1544      H1559   1.085       .  S
C1545      C1546   1.416       .  A
C1545      C1549   1.444       .  S
C1546      C1547   1.407       .  A
C1547      C1548   1.397       .  A
C1547      H1560   1.085       .  S
C1548      C1550   1.444       .  S
C1549      N1553   1.157       .  T
C1550      N1554   1.157       .  T
C1551      N1556   1.157       .  T
C1552      N1555   1.157       .  T
C1561      C1562   1.413       .  A
C1561      C1566   1.401       .  A
C1561      C1575   1.444       .  S
C1562      C1567   1.479       .  S
C1562      C1563   1.399       .  A
C1563      C1564   1.397       .  A
C1563      H1582   1.085       .  S
C1564      C1565   1.412       .  A
C1564      C1576   1.444       .  S
C1565      C1566   1.399       .  A
C1566      H1581   1.085       .  S
C1567      C1568   1.401       .  A
C1567      C1572   1.408       .  A
C1568      C1569   1.396       .  A
C1568      H1583   1.085       .  S
C1569      C1570   1.413       .  A
C1569      C1573   1.445       .  S
C1570      C1571   1.403       .  A
C1571      C1572   1.400       .  A
C1571      H1584   1.083       .  S
C1572      C1574   1.443       .  S
C1573      N1577   1.157       .  T
C1574      N1578   1.157       .  T
C1575      N1580   1.157       .  T
C1576      N1579   1.157       .  T
C1585      C1586   1.408       .  A
C1585      C1590   1.401       .  A
C1585      C1599   1.444       .  S
C1586      C1591   1.492       .  S
C1586      C1587   1.403   1_655  A
C1587      C1588   1.405       .  A
C1587      H1606   1.085       .  S
C1588      C1589   1.422   1_455  A
C1588      C1600   1.445       .  S
C1589      C1590   1.411       .  A
C1590      H1605   1.084       .  S
C1591      C1592   1.403       .  A
C1591      C1596   1.406   1_655  A
C1592      C1593   1.407       .  A
C1592      H1607   1.085       .  S
C1593      C1594   1.422       .  A
C1593      C1597   1.442       .  S
C1594      C1595   1.415       .  A
C1595      C1596   1.399   1_655  A
C1595      H1608   1.082   1_655  S
C1596      C1598   1.444       .  S
C1597      N1601   1.157       .  T
C1598      N1602   1.157       .  T
C1599      N1604   1.157       .  T
C1600      N1603   1.158       .  T
C1609      C1610   1.406       .  A
C1609      C1614   1.396       .  A
C1609      C1623   1.444       .  S
C1610      C1615   1.476       .  S
C1610      C1611   1.402   1_455  A
C1611      C1612   1.397       .  A
C1611      H1630   1.085       .  S
C1612      C1613   1.415       .  A
C1612      C1624   1.445       .  S
C1613      C1614   1.407   1_655  A
C1614      H1629   1.085       .  S
C1615      C1616   1.400   1_455  A
C1615      C1620   1.402       .  A
C1616      C1617   1.401       .  A
C1616      H1631   1.085       .  S
C1617      C1618   1.422       .  A
C1617      C1621   1.445       .  S
C1618      C1619   1.415   1_655  A
C1619      C1620   1.393       .  A
C1619      H1632   1.073       .  S
C1620      C1622   1.446       .  S
C1621      N1625   1.157       .  T
C1622      N1626   1.157       .  T
C1623      N1628   1.157       .  T
C1624      N1627   1.157       .  T
C1633      C1634   1.409       .  A
C1633      C1638   1.406       .  A
C1633      C1647   1.443       .  S
C1634      C1639   1.490       .  S
C1634      C1635   1.399       .  A
C1635      C1636   1.402       .  A
C1635      H1654   1.085       .  S
C1636      C1637   1.424       .  A
C1636      C1648   1.445       .  S
C1637      C1638   1.412       .  A
C1638      H1653   1.084       .  S
C1639      C1640   1.403       .  A
C1639      C1644   1.412       .  A
C1640      C1641   1.404       .  A
C1640      H1655   1.085       .  S
C1641      C1642   1.414       .  A
C1641      C1645   1.444       .  S
C1642      C1643   1.403       .  A
C1643      C1644   1.404       .  A
C1643      H1656   1.084       .  S
C1644      C1646   1.443       .  S
C1645      N1649   1.157       .  T
C1646      N1650   1.157       .  T
C1647      N1652   1.157       .  T
C1648      N1651   1.157       .  T
C1657      C1658   1.410       .  A
C1657      C1662   1.399       .  A
C1657      C1671   1.445       .  S
C1658      C1663   1.486       .  S
C1658      C1659   1.403       .  A
C1659      C1660   1.401       .  A
C1659      H1678   1.085       .  S
C1660      C1661   1.415       .  A
C1660      C1672   1.444       .  S
C1661      C1662   1.409       .  A
C1662      H1677   1.085       .  S
C1663      C1664   1.403       .  A
C1663      C1668   1.411       .  A
C1664      C1665   1.400       .  A
C1664      H1679   1.085       .  S
C1665      C1666   1.413       .  A
C1665      C1669   1.443       .  S
C1666      C1667   1.406       .  A
C1667      C1668   1.400       .  A
C1667      H1680   1.085       .  S
C1668      C1670   1.444       .  S
C1669      N1673   1.157       .  T
C1670      N1674   1.157       .  T
C1671      N1676   1.157       .  T
C1672      N1675   1.157       .  T
C1681      C1682   1.415       .  A
C1681      C1686   1.408       .  A
C1681      C1695   1.445       .  S
C1682      C1687   1.498       .  S
C1682      C1683   1.402       .  A
C1683      C1684   1.401       .  A
C1683      H1702   1.085       .  S
C1684      C1685   1.417       .  A
C1684      C1696   1.444       .  S
C1685      C1686   1.408       .  A
C1686      H1701   1.085       .  S
C1687      C1688   1.403       .  A
C1687      C1692   1.411       .  A
C1688      C1689   1.404       .  A
C1688      H1703   1.085       .  S
C1689      C1690   1.421       .  A
C1689      C1693   1.443       .  S
C1690      C1691   1.410       .  A
C1691      C1692   1.404       .  A
C1691      H1704   1.080       .  S
C1692      C1694   1.444       .  S
C1693      N1697   1.157       .  T
C1694      N1698   1.157       .  T
C1695      N1700   1.158       .  T
C1696      N1699   1.157       .  T
C1705      C1706   1.408       .  A
C1705      C1710   1.400       .  A
C1705      C1719   1.444       .  S
C1706      C1711   1.483       .  S
C1706      C1707   1.401       .  A
C1707      C1708   1.399       .  A
C1707      H1726   1.085       .  S
C1708      C1709   1.419       .  A
C1708      C1720   1.445       .  S
C1709      C1710   1.409       .  A
C1710      H1725   1.085       .  S
C1711      C1712   1.401       .  A
C1711      C1716   1.409       .  A
C1712      C1713   1.399       .  A
C1712      H1727   1.085       .  S
C1713      C1714   1.415       .  A
C1713      C1717   1.443       .  S
C1714      C1715   1.405       .  A
C1715      C1716   1.399       .  A
C1715      H1728   1.084       .  S
C1716      C1718   1.445       .  S
C1717      N1721   1.157       .  T
C1718      N1722   1.157       .  T
C1719      N1724   1.157       .  T
C1720      N1723   1.157       .  T
C1729      C1730   1.411       .  A
C1729      C1734   1.396       .  A
C1729      C1743   1.444       .  S
C1730      C1735   1.478       .  S
C1730      C1731   1.403       .  A
C1731      C1732   1.398       .  A
C1731      H1750   1.085       .  S
C1732      C1733   1.409       .  A
C1732      C1744   1.445       .  S
C1733      C1734   1.397       .  A
C1734      H1749   1.084       .  S
C1735      C1736   1.398       .  A
C1735      C1740   1.407       .  A
C1736      C1737   1.398       .  A
C1736      H1751   1.085       .  S
C1737      C1738   1.422       .  A
C1737      C1741   1.444       .  S
C1738      C1739   1.410       .  A
C1739      C1740   1.398       .  A
C1739      H1752   1.084       .  S
C1740      C1742   1.445       .  S
C1741      N1745   1.157       .  T
C1742      N1746   1.157       .  T
C1743      N1748   1.157       .  T
C1744      N1747   1.157       .  T
C1753      C1754   1.408       .  A
C1753      C1758   1.405       .  A
C1753      C1767   1.443       .  S
C1754      C1759   1.487       .  S
C1754      C1755   1.398       .  A
C1755      C1756   1.403       .  A
C1755      H1774   1.085       .  S
C1756      C1757   1.427       .  A
C1756      C1768   1.445       .  S
C1757      C1758   1.411       .  A
C1758      H1773   1.084       .  S
C1759      C1760   1.401       .  A
C1759      C1764   1.411       .  A
C1760      C1761   1.401       .  A
C1760      H1775   1.085       .  S
C1761      C1762   1.416       .  A
C1761      C1765   1.445       .  S
C1762      C1763   1.403       .  A
C1763      C1764   1.405       .  A
C1763      H1776   1.085       .  S
C1764      C1766   1.443       .  S
C1765      N1769   1.157       .  T
C1766      N1770   1.157       .  T
C1767      N1772   1.157       .  T
C1768      N1771   1.158       .  T
C1777      C1778   1.411       .  A
C1777      C1782   1.401       .  A
C1777      C1791   1.444       .  S
C1778      C1783   1.484       .  S
C1778      C1779   1.400       .  A
C1779      C1780   1.397       .  A
C1779      H1798   1.085       .  S
C1780      C1781   1.417       .  A
C1780      C1792   1.444       .  S
C1781      C1782   1.406       .  A
C1782      H1797   1.085       .  S
C1783      C1784   1.401       .  A
C1783      C1788   1.411       .  A
C1784      C1785   1.397       .  A
C1784      H1799   1.085       .  S
C1785      C1786   1.416       .  A
C1785      C1789   1.445       .  S
C1786      C1787   1.404       .  A
C1787      C1788   1.401       .  A
C1787      H1800   1.081       .  S
C1788      C1790   1.445       .  S
C1789      N1793   1.157       .  T
C1790      N1794   1.157       .  T
C1791      N1796   1.157       .  T
C1792      N1795   1.157       .  T
C1801      C1802   1.408       .  A
C1801      C1806   1.397       .  A
C1801      C1815   1.444       .  S
C1802      C1807   1.479       .  S
C1802      C1803   1.400       .  A
C1803      C1804   1.400       .  A
C1803      H1822   1.085       .  S
C1804      C1805   1.419       .  A
C1804      C1816   1.444       .  S
C1805      C1806   1.406       .  A
C1806      H1821   1.085       .  S
C1807      C1808   1.399       .  A
C1807      C1812   1.410       .  A
C1808      C1809   1.396       .  A
C1808      H1823   1.085       .  S
C1809      C1810   1.415       .  A
C1809      C1813   1.444       .  S
C1810      C1811   1.404       .  A
C1811      C1812   1.401       .  A
C1811      H1824   1.084       .  S
C1812      C1814   1.444       .  S
C1813      N1817   1.157       .  T
C1814      N1818   1.157       .  T
C1815      N1820   1.157       .  T
C1816      N1819   1.157   1_455  T
C1825      C1826   1.406       .  A
C1825      C1830   1.398       .  A
C1825      C1839   1.446       .  S
C1826      C1831   1.483       .  S
C1826      C1827   1.399   1_655  A
C1827      C1828   1.400       .  A
C1827      H1846   1.085       .  S
C1828      C1829   1.423   1_455  A
C1828      C1840   1.445       .  S
C1829      C1830   1.414       .  A
C1830      H1845   1.074       .  S
C1831      C1832   1.403       .  A
C1831      C1836   1.412       .  A
C1832      C1833   1.397       .  A
C1832      H1847   1.085       .  S
C1833      C1834   1.410       .  A
C1833      C1837   1.446       .  S
C1834      C1835   1.400       .  A
C1835      C1836   1.402       .  A
C1835      H1848   1.085       .  S
C1836      C1838   1.443       .  S
C1837      N1841   1.157       .  T
C1838      N1842   1.157       .  T
C1839      N1844   1.157       .  T
C1840      N1843   1.157       .  T
C1849      C1850   1.410       .  A
C1849      C1854   1.402       .  A
C1849      C1863   1.444       .  S
C1850      C1855   1.489       .  S
C1850      C1851   1.400   1_655  A
C1851      C1852   1.405       .  A
C1851      H1870   1.085       .  S
C1852      C1853   1.422   1_455  A
C1852      C1864   1.444       .  S
C1853      C1854   1.409       .  A
C1854      H1869   1.084       .  S
C1855      C1856   1.402       .  A
C1855      C1860   1.405       .  A
C1856      C1857   1.408       .  A
C1856      H1871   1.085       .  S
C1857      C1858   1.424       .  A
C1857      C1861   1.445       .  S
C1858      C1859   1.415       .  A
C1859      C1860   1.397       .  A
C1859      H1872   1.073       .  S
C1860      C1862   1.446       .  S
C1861      N1865   1.158       .  T
C1862      N1866   1.157       .  T
C1863      N1868   1.157       .  T
C1864      N1867   1.157       .  T
C1873      C1874   1.415       .  A
C1873      C1878   1.398       .  A
C1873      C1887   1.445       .  S
C1874      C1879   1.494       .  S
C1874      C1875   1.406       .  A
C1875      C1876   1.401       .  A
C1875      H1894   1.084       .  S
C1876      C1877   1.412       .  A
C1876      C1888   1.444       .  S
C1877      C1878   1.403       .  A
C1878      H1893   1.085       .  S
C1879      C1880   1.404       .  A
C1879      C1884   1.415       .  A
C1880      C1881   1.400       .  A
C1880      H1895   1.085       .  S
C1881      C1882   1.412       .  A
C1881      C1885   1.442       .  S
C1882      C1883   1.404       .  A
C1883      C1884   1.401       .  A
C1883      H1896   1.085       .  S
C1884      C1886   1.444       .  S
C1885      N1889   1.157       .  T
C1886      N1890   1.157       .  T
C1887      N1892   1.157       .  T
C1888      N1891   1.157       .  T
C1897      C1898   1.413       .  A
C1897      C1902   1.403       .  A
C1897      C1911   1.444       .  S
C1898      C1903   1.493       .  S
C1898      C1899   1.406       .  A
C1899      C1900   1.401       .  A
C1899      H1918   1.085       .  S
C1900      C1901   1.409       .  A
C1900      C1912   1.444       .  S
C1901      C1902   1.402       .  A
C1902      H1917   1.082       .  S
C1903      C1904   1.408       .  A
C1903      C1908   1.414       .  A
C1904      C1905   1.404       .  A
C1904      H1919   1.084       .  S
C1905      C1906   1.410       .  A
C1905      C1909   1.445       .  S
C1906      C1907   1.400       .  A
C1907      C1908   1.399       .  A
C1907      H1920   1.085       .  S
C1908      C1910   1.444       .  S
C1909      N1913   1.158   1_455  T
C1910      N1914   1.157       .  T
C1911      N1916   1.157       .  T
C1912      N1915   1.157       .  T
C1921      C1922   1.408       .  A
C1921      C1926   1.398       .  A
C1921      C1935   1.445       .  S
C1922      C1927   1.484       .  S
C1922      C1923   1.401       .  A
C1923      C1924   1.400       .  A
C1923      H1942   1.085       .  S
C1924      C1925   1.420       .  A
C1924      C1936   1.443       .  S
C1925      C1926   1.411       .  A
C1926      H1941   1.084       .  S
C1927      C1928   1.406       .  A
C1927      C1932   1.412       .  A
C1928      C1929   1.399       .  A
C1928      H1943   1.085       .  S
C1929      C1930   1.407       .  A
C1929      C1933   1.444       .  S
C1930      C1931   1.399       .  A
C1931      C1932   1.397       .  A
C1931      H1944   1.085       .  S
C1932      C1934   1.444       .  S
C1933      N1937   1.157       .  T
C1934      N1938   1.157       .  T
C1935      N1940   1.157       .  T
C1936      N1939   1.157       .  T
C1945      C1946   1.407       .  A
C1945      C1950   1.394       .  A
C1945      C1959   1.445       .  S
C1946      C1951   1.481       .  S
C1946      C1947   1.404       .  A
C1947      C1948   1.403       .  A
C1947      H1966   1.085       .  S
C1948      C1949   1.414       .  A
C1948      C1960   1.444       .  S
C1949      C1950   1.405       .  A
C1950      H1965   1.083       .  S
C1951      C1952   1.402       .  A
C1951      C1956   1.408       .  A
C1952      C1953   1.399       .  A
C1952      H1967   1.085       .  S
C1953      C1954   1.411       .  A
C1953      C1957   1.442       .  S
C1954      C1955   1.407       .  A
C1955      C1956   1.397       .  A
C1955      H1968   1.085       .  S
C1956      C1958   1.445       .  S
C1957      N1961   1.157       .  T
C1958      N1962   1.157       .  T
C1959      N1964   1.157       .  T
C1960      N1963   1.157       .  T
C1969      C1970   1.413       .  A
C1969      C1974   1.404       .  A
C1969      C1983   1.444       .  S
C1970      C1975   1.501       .  S
C1970      C1971   1.404       .  A
C1971      C1972   1.408       .  A
C1971      H1990   1.085       .  S
C1972      C1973   1.417       .  A
C1972      C1984   1.442       .  S
C1973      C1974   1.409       .  A
C1974      H1989   1.084       .  S
C1975      C1976   1.404       .  A
C1975      C1980   1.412       .  A
C1976      C1977   1.409       .  A
C1976      H1991   1.085       .  S
C1977      C1978   1.422       .  A
C1977      C1981   1.444       .  S
C1978      C1979   1.410       .  A
C1979      C1980   1.407       .  A
C1979      H1992   1.084       .  S
C1980      C1982   1.444       .  S
C1981      N1985   1.157   1_455  T
C1982      N1986   1.157       .  T
C1983      N1988   1.157       .  T
C1984      N1987   1.157       .  T
C1993      C1994   1.411       .  A
C1993      C1998   1.395       .  A
C1993      C2007   1.444       .  S
C1994      C1999   1.480       .  S
C1994      C1995   1.404       .  A
C1995      C1996   1.398       .  A
C1995      H2014   1.085       .  S
C1996      C1997   1.411       .  A
C1996      C2008   1.445       .  S
C1997      C1998   1.402       .  A
C1998      H2013   1.085       .  S
C1999      C2000   1.401       .  A
C1999      C2004   1.410       .  A
C2000      C2001   1.397       .  A
C2000      H2015   1.085       .  S
C2001      C2002   1.415       .  A
C2001      C2005   1.444       .  S
C2002      C2003   1.405       .  A
C2003      C2004   1.398       .  A
C2003      H2016   1.085       .  S
C2004      C2006   1.444       .  S
C2005      N2009   1.157       .  T
C2006      N2010   1.157       .  T
C2007      N2012   1.157       .  T
C2008      N2011   1.157       .  T
C2017      C2018   1.412       .  A
C2017      C2022   1.405       .  A
C2017      C2031   1.444       .  S
C2018      C2023   1.491       .  S
C2018      C2019   1.402       .  A
C2019      C2020   1.399       .  A
C2019      H2038   1.085       .  S
C2020      C2021   1.417       .  A
C2020      C2032   1.444       .  S
C2021      C2022   1.410       .  A
C2022      H2037   1.084       .  S
C2023      C2024   1.406       .  A
C2023      C2028   1.414       .  A
C2024      C2025   1.403       .  A
C2024      H2039   1.084       .  S
C2025      C2026   1.409       .  A
C2025      C2029   1.443       .  S
C2026      C2027   1.399       .  A
C2027      C2028   1.399       .  A
C2027      H2040   1.085       .  S
C2028      C2030   1.444       .  S
C2029      N2033   1.157       .  T
C2030      N2034   1.157       .  T
C2031      N2036   1.157       .  T
C2032      N2035   1.157       .  T
C2041      C2042   1.411       .  A
C2041      C2046   1.397       .  A
C2041      C2055   1.445       .  S
C2042      C2047   1.476       .  S
C2042      C2043   1.401       .  A
C2043      C2044   1.398       .  A
C2043      H2062   1.085       .  S
C2044      C2045   1.410       .  A
C2044      C2056   1.445       .  S
C2045      C2046   1.400       .  A
C2046      H2061   1.085       .  S
C2047      C2048   1.398       .  A
C2047      C2052   1.406       .  A
C2048      C2049   1.396       .  A
C2048      H2063   1.086       .  S
C2049      C2050   1.418       .  A
C2049      C2053   1.442       .  S
C2050      C2051   1.409       .  A
C2051      C2052   1.399       .  A
C2051      H2064   1.084       .  S
C2052      C2054   1.444       .  S
C2053      N2057   1.157   1_565  T
C2054      N2058   1.157       .  T
C2055      N2060   1.157       .  T
C2056      N2059   1.157       .  T
C2065      C2066   1.407       .  A
C2065      C2070   1.397       .  A
C2065      C2079   1.444       .  S
C2066      C2071   1.479       .  S
C2066      C2067   1.398       .  A
C2067      C2068   1.396       .  A
C2067      H2086   1.085       .  S
C2068      C2069   1.424       .  A
C2068      C2080   1.446       .  S
C2069      C2070   1.410       .  A
C2070      H2085   1.077       .  S
C2071      C2072   1.403       .  A
C2071      C2076   1.409       .  A
C2072      C2073   1.400       .  A
C2072      H2087   1.085       .  S
C2073      C2074   1.413       .  A
C2073      C2077   1.445       .  S
C2074      C2075   1.403       .  A
C2075      C2076   1.394       .  A
C2075      H2088   1.085       .  S
C2076      C2078   1.445       .  S
C2077      N2081   1.157       .  T
C2078      N2082   1.157       .  T
C2079      N2084   1.157       .  T
C2080      N2083   1.158       .  T
C2089      C2090   1.408       .  A
C2089      C2094   1.399       .  A
C2089      C2103   1.445       .  S
C2090      C2095   1.491       .  S
C2090      C2091   1.406       .  A
C2091      C2092   1.408       .  A
C2091      H2110   1.084       .  S
C2092      C2093   1.414       .  A
C2092      C2104   1.442       .  S
C2093      C2094   1.410       .  A
C2094      H2109   1.085       .  S
C2095      C2096   1.411       .  A
C2095      C2100   1.406       .  A
C2096      C2097   1.411       .  A
C2096      H2111   1.084       .  S
C2097      C2098   1.408       .  A
C2097      C2101   1.442       .  S
C2098      C2099   1.408       .  A
C2099      C2100   1.395       .  A
C2099      H2112   1.084       .  S
C2100      C2102   1.445       .  S
C2101      N2105   1.157       .  T
C2102      N2106   1.157       .  T
C2103      N2108   1.157       .  T
C2104      N2107   1.157       .  T
C2113      C2114   1.411       .  A
C2113      C2118   1.400       .  A
C2113      C2127   1.444       .  S
C2114      C2119   1.490       .  S
C2114      C2115   1.404       .  A
C2115      C2116   1.401       .  A
C2115      H2134   1.085       .  S
C2116      C2117   1.417       .  A
C2116      C2128   1.445       .  S
C2117      C2118   1.406       .  A
C2118      H2133   1.084       .  S
C2119      C2120   1.401       .  A
C2119      C2124   1.407       .  A
C2120      C2121   1.401       .  A
C2120      H2135   1.085       .  S
C2121      C2122   1.423       .  A
C2121      C2125   1.444       .  S
C2122      C2123   1.415       .  A
C2123      C2124   1.399       .  A
C2123      H2136   1.074       .  S
C2124      C2126   1.445       .  S
C2125      N2129   1.157       .  T
C2126      N2130   1.157       .  T
C2127      N2132   1.157       .  T
C2128      N2131   1.158       .  T
C2137      C2138   1.409       .  A
C2137      C2142   1.405       .  A
C2137      C2151   1.443       .  S
C2138      C2143   1.479       .  S
C2138      C2139   1.400       .  A
C2139      C2140   1.396       .  A
C2139      H2158   1.085       .  S
C2140      C2141   1.412       .  A
C2140      C2152   1.445       .  S
C2141      C2142   1.406       .  A
C2142      H2157   1.083       .  S
C2143      C2144   1.401       .  A
C2143      C2148   1.408       .  A
C2144      C2145   1.397       .  A
C2144      H2159   1.085       .  S
C2145      C2146   1.412       .  A
C2145      C2149   1.444       .  S
C2146      C2147   1.404       .  A
C2147      C2148   1.404       .  A
C2147      H2160   1.081       .  S
C2148      C2150   1.443       .  S
C2149      N2153   1.157       .  T
C2150      N2154   1.157       .  T
C2151      N2156   1.157       .  T
C2152      N2155   1.157       .  T
C2161      C2162   1.414       .  A
C2161      C2166   1.403       .  A
C2161      C2175   1.444       .  S
C2162      C2167   1.488       .  S
C2162      C2163   1.403       .  A
C2163      C2164   1.398       .  A
C2163      H2182   1.085       .  S
C2164      C2165   1.410       .  A
C2164      C2176   1.444       .  S
C2165      C2166   1.401       .  A
C2166      H2181   1.085       .  S
C2167      C2168   1.402   1_556  A
C2167      C2172   1.408       .  A
C2168      C2169   1.404       .  A
C2168      H2183   1.085       .  S
C2169      C2170   1.423       .  A
C2169      C2173   1.445       .  S
C2170      C2171   1.413   1_554  A
C2171      C2172   1.396       .  A
C2171      H2184   1.074       .  S
C2172      C2174   1.446       .  S
C2173      N2177   1.157       .  T
C2174      N2178   1.157       .  T
C2175      N2180   1.157       .  T
C2176      N2179   1.157       .  T
C2185      C2186   1.411       .  A
C2185      C2190   1.401       .  A
C2185      C2199   1.444       .  S
C2186      C2191   1.490       .  S
C2186      C2187   1.408       .  A
C2187      C2188   1.402       .  A
C2187      H2206   1.084       .  S
C2188      C2189   1.407       .  A
C2188      C2200   1.444       .  S
C2189      C2190   1.404       .  A
C2190      H2205   1.085       .  S
C2191      C2192   1.408       .  A
C2191      C2196   1.408       .  A
C2192      C2193   1.406   1_556  A
C2192      H2207   1.085   1_556  S
C2193      C2194   1.411   1_554  A
C2193      C2197   1.443       .  S
C2194      C2195   1.408       .  A
C2195      C2196   1.397       .  A
C2195      H2208   1.085       .  S
C2196      C2198   1.444       .  S
C2197      N2201   1.157       .  T
C2198      N2202   1.157       .  T
C2199      N2204   1.157       .  T
C2200      N2203   1.157       .  T
C2209      C2210   1.408   1_556  A
C2209      C2214   1.406       .  A
C2209      C2223   1.444       .  S
C2210      C2215   1.494       .  S
C2210      C2211   1.403       .  A
C2211      C2212   1.406       .  A
C2211      H2230   1.085       .  S
C2212      C2213   1.421       .  A
C2212      C2224   1.444       .  S
C2213      C2214   1.413   1_554  A
C2214      H2229   1.084       .  S
C2215      C2216   1.402       .  A
C2215      C2220   1.405   1_554  A
C2216      C2217   1.408       .  A
C2216      H2231   1.085       .  S
C2217      C2218   1.424   1_554  A
C2217      C2221   1.445       .  S
C2218      C2219   1.418       .  A
C2219      C2220   1.403       .  A
C2219      H2232   1.075       .  S
C2220      C2222   1.445       .  S
C2221      N2225   1.157       .  T
C2222      N2226   1.157       .  T
C2223      N2228   1.157       .  T
C2224      N2227   1.157       .  T
C2233      C2234   1.405       .  A
C2233      C2238   1.401       .  A
C2233      C2247   1.444       .  S
C2234      C2239   1.472       .  S
C2234      C2235   1.399       .  A
C2235      C2236   1.395       .  A
C2235      H2254   1.085       .  S
C2236      C2237   1.411       .  A
C2236      C2248   1.445       .  S
C2237      C2238   1.406       .  A
C2238      H2253   1.081       .  S
C2239      C2240   1.400       .  A
C2239      C2244   1.408   1_556  A
C2240      C2241   1.400       .  A
C2240      H2255   1.085       .  S
C2241      C2242   1.411       .  A
C2241      C2245   1.442       .  S
C2242      C2243   1.401   1_556  A
C2243      C2244   1.395       .  A
C2243      H2256   1.085       .  S
C2244      C2246   1.444       .  S
C2245      N2249   1.157       .  T
C2246      N2250   1.157       .  T
C2247      N2252   1.157       .  T
C2248      N2251   1.157       .  T
C2257      C2258   1.405       .  A
C2257      C2262   1.396       .  A
C2257      C2271   1.447       .  S
C2258      C2263   1.482       .  S
C2258      C2259   1.400       .  A
C2259      C2260   1.402       .  A
C2259      H2278   1.085       .  S
C2260      C2261   1.422       .  A
C2260      C2272   1.444       .  S
C2261      C2262   1.415       .  A
C2262      H2277   1.074       .  S
C2263      C2264   1.401       .  A
C2263      C2268   1.408       .  A
C2264      C2265   1.397       .  A
C2264      H2279   1.085       .  S
C2265      C2266   1.418       .  A
C2265      C2269   1.445       .  S
C2266      C2267   1.409       .  A
C2267      C2268   1.399       .  A
C2267      H2280   1.084       .  S
C2268      C2270   1.443       .  S
C2269      N2273   1.158       .  T
C2270      N2274   1.157       .  T
C2271      N2276   1.157       .  T
C2272      N2275   1.157       .  T
C2281      C2282   1.408       .  A
C2281      C2286   1.402       .  A
C2281      C2295   1.443       .  S
C2282      C2287   1.480       .  S
C2282      C2283   1.402       .  A
C2283      C2284   1.393       .  A
C2283      H2302   1.085       .  S
C2284      C2285   1.413       .  A
C2284      C2296   1.446       .  S
C2285      C2286   1.404       .  A
C2286      H2301   1.081       .  S
C2287      C2288   1.400       .  A
C2287      C2292   1.415       .  A
C2288      C2289   1.392       .  A
C2288      H2303   1.085       .  S
C2289      C2290   1.409       .  A
C2289      C2293   1.445       .  S
C2290      C2291   1.402       .  A
C2291      C2292   1.405       .  A
C2291      H2304   1.085       .  S
C2292      C2294   1.444       .  S
C2293      N2297   1.157       .  T
C2294      N2298   1.158       .  T
C2295      N2300   1.157       .  T
C2296      N2299   1.157       .  T
C2305      C2306   1.410   1_554  A
C2305      C2310   1.405       .  A
C2305      C2319   1.444       .  S
C2306      C2311   1.491   1_556  S
C2306      C2307   1.400       .  A
C2307      C2308   1.403       .  A
C2307      H2326   1.085       .  S
C2308      C2309   1.421       .  A
C2308      C2320   1.443       .  S
C2309      C2310   1.410   1_556  A
C2310      H2325   1.084       .  S
C2311      C2312   1.400   1_554  A
C2311      C2316   1.409       .  A
C2312      C2313   1.403       .  A
C2312      H2327   1.085       .  S
C2313      C2314   1.424   1_556  A
C2313      C2317   1.445       .  S
C2314      C2315   1.414       .  A
C2315      C2316   1.403       .  A
C2315      H2328   1.076       .  S
C2316      C2318   1.445       .  S
C2317      N2321   1.157       .  T
C2318      N2322   1.157       .  T
C2319      N2324   1.157       .  T
C2320      N2323   1.157       .  T
C2329      C2330   1.407       .  A
C2329      C2334   1.396       .  A
C2329      C2343   1.446       .  S
C2330      C2335   1.483       .  S
C2330      C2331   1.403       .  A
C2331      C2332   1.407       .  A
C2331      H2350   1.084       .  S
C2332      C2333   1.418       .  A
C2332      C2344   1.443   1_565  S
C2333      C2334   1.409       .  A
C2334      H2349   1.085       .  S
C2335      C2336   1.401       .  A
C2335      C2340   1.410   1_554  A
C2336      C2337   1.400       .  A
C2336      H2351   1.085       .  S
C2337      C2338   1.413       .  A
C2337      C2341   1.444       .  S
C2338      C2339   1.403   1_554  A
C2339      C2340   1.404       .  A
C2339      H2352   1.084       .  S
C2340      C2342   1.444       .  S
C2341      N2345   1.157       .  T
C2342      N2346   1.157       .  T
C2343      N2348   1.157   1_554  T
C2344      N2347   1.157       .  T
C2353      C2354   1.409   1_554  A
C2353      C2358   1.404       .  A
C2353      C2367   1.443       .  S
C2354      C2359   1.483       .  S
C2354      C2355   1.397       .  A
C2355      C2356   1.400       .  A
C2355      H2374   1.085       .  S
C2356      C2357   1.422       .  A
C2356      C2368   1.444       .  S
C2357      C2358   1.407   1_556  A
C2358      H2373   1.084       .  S
C2359      C2360   1.401   1_556  A
C2359      C2364   1.405       .  A
C2360      C2361   1.406       .  A
C2360      H2375   1.085       .  S
C2361      C2362   1.421   1_554  A
C2361      C2365   1.441       .  S
C2362      C2363   1.414       .  A
C2363      C2364   1.397       .  A
C2363      H2376   1.085       .  S
C2364      C2366   1.444       .  S
C2365      N2369   1.158       .  T
C2366      N2370   1.157       .  T
C2367      N2372   1.157       .  T
C2368      N2371   1.157       .  T
C2377      C2378   1.403       .  A
C2377      C2382   1.390       .  A
C2377      C2391   1.445   1_554  S
C2378      C2383   1.486       .  S
C2378      C2379   1.409       .  A
C2379      C2380   1.413       .  A
C2379      H2398   1.084       .  S
C2380      C2381   1.415       .  A
C2380      C2392   1.442       .  S
C2381      C2382   1.410       .  A
C2382      H2397   1.082   1_554  S
C2383      C2384   1.404       .  A
C2383      C2388   1.405       .  A
C2384      C2385   1.406       .  A
C2384      H2399   1.085       .  S
C2385      C2386   1.417       .  A
C2385      C2389   1.440       .  S
C2386      C2387   1.413       .  A
C2387      C2388   1.397       .  A
C2387      H2400   1.084   1_554  S
C2388      C2390   1.444   1_554  S
C2389      N2393   1.157       .  T
C2390      N2394   1.157       .  T
C2391      N2396   1.157       .  T
C2392      N2395   1.157       .  T
C2401      C2402   1.413       .  A
C2401      C2406   1.400       .  A
C2401      C2415   1.443       .  S
C2402      C2407   1.487       .  S
C2402      C2403   1.405       .  A
C2403      C2404   1.400       .  A
C2403      H2422   1.085       .  S
C2404      C2405   1.410       .  A
C2404      C2416   1.445       .  S
C2405      C2406   1.398       .  A
C2406      H2421   1.085       .  S
C2407      C2408   1.401   1_545  A
C2407      C2412   1.406       .  A
C2408      C2409   1.403       .  A
C2408      H2423   1.085       .  S
C2409      C2410   1.423   1_565  A
C2409      C2413   1.444       .  S
C2410      C2411   1.415       .  A
C2411      C2412   1.398       .  A
C2411      H2424   1.076       .  S
C2412      C2414   1.446       .  S
C2413      N2417   1.157       .  T
C2414      N2418   1.157       .  T
C2415      N2420   1.157       .  T
C2416      N2419   1.157       .  T
C2425      C2426   1.406   1_565  A
C2425      C2430   1.398       .  A
C2425      C2439   1.446       .  S
C2426      C2431   1.479       .  S
C2426      C2427   1.398       .  A
C2427      C2428   1.397       .  A
C2427      H2446   1.085       .  S
C2428      C2429   1.422       .  A
C2428      C2440   1.445       .  S
C2429      C2430   1.414   1_545  A
C2430      H2445   1.075       .  S
C2431      C2432   1.398       .  A
C2431      C2436   1.409   1_545  A
C2432      C2433   1.396       .  A
C2432      H2447   1.085       .  S
C2433      C2434   1.420       .  A
C2433      C2437   1.445       .  S
C2434      C2435   1.408   1_545  A
C2435      C2436   1.399       .  A
C2435      H2448   1.084       .  S
C2436      C2438   1.445       .  S
C2437      N2441   1.157       .  T
C2438      N2442   1.157       .  T
C2439      N2444   1.157       .  T
C2440      N2443   1.157       .  T
C2449      C2450   1.414       .  A
C2449      C2454   1.403       .  A
C2449      C2463   1.444       .  S
C2450      C2455   1.495       .  S
C2450      C2451   1.404       .  A
C2451      C2452   1.402       .  A
C2451      H2470   1.084       .  S
C2452      C2453   1.416       .  A
C2452      C2464   1.445       .  S
C2453      C2454   1.404       .  A
C2454      H2469   1.084       .  S
C2455      C2456   1.405       .  A
C2455      C2460   1.413       .  A
C2456      C2457   1.401       .  A
C2456      H2471   1.085       .  S
C2457      C2458   1.411       .  A
C2457      C2461   1.441       .  S
C2458      C2459   1.405       .  A
C2459      C2460   1.402       .  A
C2459      H2472   1.085       .  S
C2460      C2462   1.443       .  S
C2461      N2465   1.156       .  T
C2462      N2466   1.157       .  T
C2463      N2468   1.157       .  T
C2464      N2467   1.157       .  T
C2473      C2474   1.406       .  A
C2473      C2478   1.403       .  A
C2473      C2487   1.444       .  S
C2474      C2479   1.482       .  S
C2474      C2475   1.399       .  A
C2475      C2476   1.401       .  A
C2475      H2494   1.085       .  S
C2476      C2477   1.418       .  A
C2476      C2488   1.442       .  S
C2477      C2478   1.411       .  A
C2478      H2493   1.084       .  S
C2479      C2480   1.403       .  A
C2479      C2484   1.410       .  A
C2480      C2481   1.402       .  A
C2480      H2495   1.085       .  S
C2481      C2482   1.410       .  A
C2481      C2485   1.445       .  S
C2482      C2483   1.400       .  A
C2483      C2484   1.400       .  A
C2483      H2496   1.085       .  S
C2484      C2486   1.443       .  S
C2485      N2489   1.157       .  T
C2486      N2490   1.157       .  T
C2487      N2492   1.157       .  T
C2488      N2491   1.157       .  T
C2497      C2498   1.410       .  A
C2497      C2502   1.397       .  A
C2497      C2511   1.443       .  S
C2498      C2503   1.480       .  S
C2498      C2499   1.402       .  A
C2499      C2500   1.402       .  A
C2499      H2518   1.085       .  S
C2500      C2501   1.410       .  A
C2500      C2512   1.443       .  S
C2501      C2502   1.399       .  A
C2502      H2517   1.082       .  S
C2503      C2504   1.400       .  A
C2503      C2508   1.406       .  A
C2504      C2505   1.402       .  A
C2504      H2519   1.085       .  S
C2505      C2506   1.419       .  A
C2505      C2509   1.444       .  S
C2506      C2507   1.410       .  A
C2507      C2508   1.400       .  A
C2507      H2520   1.085       .  S
C2508      C2510   1.444       .  S
C2509      N2513   1.157       .  T
C2510      N2514   1.157       .  T
C2511      N2516   1.157       .  T
C2512      N2515   1.157       .  T
C2521      C2522   1.409       .  A
C2521      C2526   1.399       .  A
C2521      C2535   1.445       .  S
C2522      C2527   1.488       .  S
C2522      C2523   1.402       .  A
C2523      C2524   1.398       .  A
C2523      H2542   1.085       .  S
C2524      C2525   1.421       .  A
C2524      C2536   1.444       .  S
C2525      C2526   1.412       .  A
C2526      H2541   1.083       .  S
C2527      C2528   1.401       .  A
C2527      C2532   1.410       .  A
C2528      C2529   1.399       .  A
C2528      H2543   1.085       .  S
C2529      C2530   1.422       .  A
C2529      C2533   1.445       .  S
C2530      C2531   1.410       .  A
C2531      C2532   1.397       .  A
C2531      H2544   1.079       .  S
C2532      C2534   1.445       .  S
C2533      N2537   1.157       .  T
C2534      N2538   1.157       .  T
C2535      N2540   1.157       .  T
C2536      N2539   1.157       .  T
C2545      C2546   1.404       .  A
C2545      C2550   1.400       .  A
C2545      C2559   1.445       .  S
C2546      C2551   1.478       .  S
C2546      C2547   1.396       .  A
C2547      C2548   1.400       .  A
C2547      H2566   1.085       .  S
C2548      C2549   1.426       .  A
C2548      C2560   1.445       .  S
C2549      C2550   1.414       .  A
C2550      H2565   1.077       .  S
C2551      C2552   1.398       .  A
C2551      C2556   1.411       .  A
C2552      C2553   1.397       .  A
C2552      H2567   1.085       .  S
C2553      C2554   1.410       .  A
C2553      C2557   1.443       .  S
C2554      C2555   1.403       .  A
C2555      C2556   1.404       .  A
C2555      H2568   1.084       .  S
C2556      C2558   1.444       .  S
C2557      N2561   1.157       .  T
C2558      N2562   1.157       .  T
C2559      N2564   1.157       .  T
C2560      N2563   1.157       .  T
C2569      C2570   1.414       .  A
C2569      C2574   1.403       .  A
C2569      C2583   1.444       .  S
C2570      C2575   1.493       .  S
C2570      C2571   1.406       .  A
C2571      C2572   1.404       .  A
C2571      H2590   1.085       .  S
C2572      C2573   1.409       .  A
C2572      C2584   1.442       .  S
C2573      C2574   1.403       .  A
C2574      H2589   1.085       .  S
C2575      C2576   1.401       .  A
C2575      C2580   1.411       .  A
C2576      C2577   1.400       .  A
C2576      H2591   1.085       .  S
C2577      C2578   1.415       .  A
C2577      C2581   1.440       .  S
C2578      C2579   1.410       .  A
C2579      C2580   1.406       .  A
C2579      H2592   1.085       .  S
C2580      C2582   1.444       .  S
C2581      N2585   1.157   1_554  T
C2582      N2586   1.157       .  T
C2583      N2588   1.157       .  T
C2584      N2587   1.157       .  T
C2593      C2594   1.409       .  A
C2593      C2598   1.398       .  A
C2593      C2607   1.444       .  S
C2594      C2599   1.481       .  S
C2594      C2595   1.401       .  A
C2595      C2596   1.400       .  A
C2595      H2614   1.085       .  S
C2596      C2597   1.415       .  A
C2596      C2608   1.442       .  S
C2597      C2598   1.406       .  A
C2598      H2613   1.085       .  S
C2599      C2600   1.403       .  A
C2599      C2604   1.411       .  A
C2600      C2601   1.397       .  A
C2600      H2615   1.085       .  S
C2601      C2602   1.409       .  A
C2601      C2605   1.444       .  S
C2602      C2603   1.402       .  A
C2603      C2604   1.400       .  A
C2603      H2616   1.085       .  S
C2604      C2606   1.444       .  S
C2605      N2609   1.157       .  T
C2606      N2610   1.157       .  T
C2607      N2612   1.157       .  T
C2608      N2611   1.157   1_554  T
C2617      C2618   1.413       .  A
C2617      C2622   1.402       .  A
C2617      C2631   1.444       .  S
C2618      C2623   1.489       .  S
C2618      C2619   1.401       .  A
C2619      C2620   1.397       .  A
C2619      H2638   1.085       .  S
C2620      C2621   1.420       .  A
C2620      C2632   1.445       .  S
C2621      C2622   1.408       .  A
C2622      H2637   1.085       .  S
C2623      C2624   1.404       .  A
C2623      C2628   1.415       .  A
C2624      C2625   1.399       .  A
C2624      H2639   1.085       .  S
C2625      C2626   1.409       .  A
C2625      C2629   1.443       .  S
C2626      C2627   1.400       .  A
C2627      C2628   1.400       .  A
C2627      H2640   1.085       .  S
C2628      C2630   1.444       .  S
C2629      N2633   1.157   1_554  T
C2630      N2634   1.157       .  T
C2631      N2636   1.157       .  T
C2632      N2635   1.157       .  T
C2641      C2642   1.408       .  A
C2641      C2646   1.402       .  A
C2641      C2655   1.444       .  S
C2642      C2647   1.489       .  S
C2642      C2643   1.401       .  A
C2643      C2644   1.403       .  A
C2643      H2662   1.085       .  S
C2644      C2645   1.421       .  A
C2644      C2656   1.443       .  S
C2645      C2646   1.412       .  A
C2646      H2661   1.084       .  S
C2647      C2648   1.402       .  A
C2647      C2652   1.408       .  A
C2648      C2649   1.403       .  A
C2648      H2663   1.085       .  S
C2649      C2650   1.418       .  A
C2649      C2653   1.443       .  S
C2650      C2651   1.410       .  A
C2651      C2652   1.402       .  A
C2651      H2664   1.084       .  S
C2652      C2654   1.444       .  S
C2653      N2657   1.157       .  T
C2654      N2658   1.157       .  T
C2655      N2660   1.157       .  T
C2656      N2659   1.157       .  T
C2665      C2666   1.406       .  A
C2665      C2670   1.399       .  A
C2665      C2679   1.445       .  S
C2666      C2671   1.480       .  S
C2666      C2667   1.398       .  A
C2667      C2668   1.399       .  A
C2667      H2686   1.085       .  S
C2668      C2669   1.423       .  A
C2668      C2680   1.445       .  S
C2669      C2670   1.413       .  A
C2670      H2685   1.075       .  S
C2671      C2672   1.399       .  A
C2671      C2676   1.409       .  A
C2672      C2673   1.397       .  A
C2672      H2687   1.085       .  S
C2673      C2674   1.417       .  A
C2673      C2677   1.444       .  S
C2674      C2675   1.408       .  A
C2675      C2676   1.401       .  A
C2675      H2688   1.085       .  S
C2676      C2678   1.444       .  S
C2677      N2681   1.157       .  T
C2678      N2682   1.157       .  T
C2679      N2684   1.157       .  T
C2680      N2683   1.157       .  T
C2689      C2690   1.417       .  A
C2689      C2694   1.406       .  A
C2689      C2703   1.444       .  S
C2690      C2695   1.496       .  S
C2690      C2691   1.400       .  A
C2691      C2692   1.397       .  A
C2691      H2710   1.085       .  S
C2692      C2693   1.414       .  A
C2692      C2704   1.439       .  S
C2693      C2694   1.405       .  A
C2694      H2709   1.085       .  S
C2695      C2696   1.402       .  A
C2695      C2700   1.417       .  A
C2696      C2697   1.399       .  A
C2696      H2711   1.085       .  S
C2697      C2698   1.419       .  A
C2697      C2701   1.444       .  S
C2698      C2699   1.404       .  A
C2699      C2700   1.404       .  A
C2699      H2712   1.084       .  S
C2700      C2702   1.445       .  S
C2701      N2705   1.157       .  T
C2702      N2706   1.157       .  T
C2703      N2708   1.157       .  T
C2704      N2707   1.155       .  T
C2713      C2714   1.413       .  A
C2713      C2718   1.404       .  A
C2713      C2727   1.443       .  S
C2714      C2719   1.481       .  S
C2714      C2715   1.399       .  A
C2715      C2716   1.396       .  A
C2715      H2734   1.085       .  S
C2716      C2717   1.413       .  A
C2716      C2728   1.445       .  S
C2717      C2718   1.401       .  A
C2718      H2733   1.085       .  S
C2719      C2720   1.401       .  A
C2719      C2724   1.410       .  A
C2720      C2721   1.403       .  A
C2720      H2735   1.084       .  S
C2721      C2722   1.414       .  A
C2721      C2725   1.445       .  S
C2722      C2723   1.401       .  A
C2723      C2724   1.400       .  A
C2723      H2736   1.083       .  S
C2724      C2726   1.445       .  S
C2725      N2729   1.157       .  T
C2726      N2730   1.157       .  T
C2727      N2732   1.157       .  T
C2728      N2731   1.157       .  T
C2737      C2738   1.409   1_565  A
C2737      C2742   1.399       .  A
C2737      C2751   1.444       .  S
C2738      C2743   1.478       .  S
C2738      C2739   1.397       .  A
C2739      C2740   1.397       .  A
C2739      H2758   1.085       .  S
C2740      C2741   1.421       .  A
C2740      C2752   1.445       .  S
C2741      C2742   1.407   1_545  A
C2742      H2757   1.085       .  S
C2743      C2744   1.397       .  A
C2743      C2748   1.407   1_545  A
C2744      C2745   1.397       .  A
C2744      H2759   1.085       .  S
C2745      C2746   1.425       .  A
C2745      C2749   1.447       .  S
C2746      C2747   1.410   1_545  A
C2747      C2748   1.398       .  A
C2747      H2760   1.077       .  S
C2748      C2750   1.445       .  S
C2749      N2753   1.158       .  T
C2750      N2754   1.157       .  T
C2751      N2756   1.157       .  T
C2752      N2755   1.157       .  T
C2761      C2762   1.413       .  A
C2761      C2766   1.400       .  A
C2761      C2775   1.444       .  S
C2762      C2767   1.480       .  S
C2762      C2763   1.401       .  A
C2763      C2764   1.397       .  A
C2763      H2782   1.085       .  S
C2764      C2765   1.411       .  A
C2764      C2776   1.445       .  S
C2765      C2766   1.399       .  A
C2766      H2781   1.085       .  S
C2767      C2768   1.397   1_545  A
C2767      C2772   1.406       .  A
C2768      C2769   1.397       .  A
C2768      H2783   1.085       .  S
C2769      C2770   1.423   1_565  A
C2769      C2773   1.445       .  S
C2770      C2771   1.414       .  A
C2771      C2772   1.399       .  A
C2771      H2784   1.076       .  S
C2772      C2774   1.445       .  S
C2773      N2777   1.157       .  T
C2774      N2778   1.157       .  T
C2775      N2780   1.157       .  T
C2776      N2779   1.157       .  T
C2785      C2786   1.408       .  A
C2785      C2790   1.398       .  A
C2785      C2799   1.444       .  S
C2786      C2791   1.482       .  S
C2786      C2787   1.401       .  A
C2787      C2788   1.400       .  A
C2787      H2806   1.085       .  S
C2788      C2789   1.417       .  A
C2788      C2800   1.444       .  S
C2789      C2790   1.408       .  A
C2790      H2805   1.085       .  S
C2791      C2792   1.401       .  A
C2791      C2796   1.409       .  A
C2792      C2793   1.399       .  A
C2792      H2807   1.085       .  S
C2793      C2794   1.414       .  A
C2793      C2797   1.443       .  S
C2794      C2795   1.407       .  A
C2795      C2796   1.400       .  A
C2795      H2808   1.084       .  S
C2796      C2798   1.444       .  S
C2797      N2801   1.157       .  T
C2798      N2802   1.157       .  T
C2799      N2804   1.157       .  T
C2800      N2803   1.157       .  T
C2809      C2810   1.409       .  A
C2809      C2814   1.402       .  A
C2809      C2823   1.445       .  S
C2810      C2815   1.480       .  S
C2810      C2811   1.400       .  A
C2811      C2812   1.397       .  A
C2811      H2830   1.085       .  S
C2812      C2813   1.415       .  A
C2812      C2824   1.443       .  S
C2813      C2814   1.409       .  A
C2814      H2829   1.085       .  S
C2815      C2816   1.400       .  A
C2815      C2820   1.410       .  A
C2816      C2817   1.398       .  A
C2816      H2831   1.085       .  S
C2817      C2818   1.412       .  A
C2817      C2821   1.442       .  S
C2818      C2819   1.405       .  A
C2819      C2820   1.398       .  A
C2819      H2832   1.085       .  S
C2820      C2822   1.444       .  S
C2821      N2825   1.157       .  T
C2822      N2826   1.157       .  T
C2823      N2828   1.158       .  T
C2824      N2827   1.157       .  T
C2833      C2834   1.416       .  A
C2833      C2838   1.400       .  A
C2833      C2847   1.443       .  S
C2834      C2839   1.498       .  S
C2834      C2835   1.409       .  A
C2835      C2836   1.401       .  A
C2835      H2854   1.084       .  S
C2836      C2837   1.407       .  A
C2836      C2848   1.443       .  S
C2837      C2838   1.400       .  A
C2838      H2853   1.085       .  S
C2839      C2840   1.407       .  A
C2839      C2844   1.413       .  A
C2840      C2841   1.402       .  A
C2840      H2855   1.084       .  S
C2841      C2842   1.415       .  A
C2841      C2845   1.445       .  S
C2842      C2843   1.409       .  A
C2843      C2844   1.399       .  A
C2843      H2856   1.084       .  S
C2844      C2846   1.445       .  S
C2845      N2849   1.158       .  T
C2846      N2850   1.157       .  T
C2847      N2852   1.157       .  T
C2848      N2851   1.158       .  T
C2857      C2858   1.411       .  A
C2857      C2862   1.403       .  A
C2857      C2871   1.443       .  S
C2858      C2863   1.488       .  S
C2858      C2859   1.400       .  A
C2859      C2860   1.400       .  A
C2859      H2878   1.085       .  S
C2860      C2861   1.420       .  A
C2860      C2872   1.445       .  S
C2861      C2862   1.404       .  A
C2862      H2877   1.084       .  S
C2863      C2864   1.400       .  A
C2863      C2868   1.409       .  A
C2864      C2865   1.402       .  A
C2864      H2879   1.085       .  S
C2865      C2866   1.420       .  A
C2865      C2869   1.442       .  S
C2866      C2867   1.410       .  A
C2867      C2868   1.404       .  A
C2867      H2880   1.084       .  S
C2868      C2870   1.444       .  S
C2869      N2873   1.156       .  T
C2870      N2874   1.157       .  T
C2871      N2876   1.157       .  T
C2872      N2875   1.158       .  T
C2881      C2882   1.408       .  A
C2881      C2886   1.399       .  A
C2881      C2895   1.444       .  S
C2882      C2887   1.488       .  S
C2882      C2883   1.402       .  A
C2883      C2884   1.402       .  A
C2883      H2902   1.085       .  S
C2884      C2885   1.422       .  A
C2884      C2896   1.444       .  S
C2885      C2886   1.411       .  A
C2886      H2901   1.084       .  S
C2887      C2888   1.401       .  A
C2887      C2892   1.406       .  A
C2888      C2889   1.404       .  A
C2888      H2903   1.085       .  S
C2889      C2890   1.423       .  A
C2889      C2893   1.443       .  S
C2890      C2891   1.415       .  A
C2891      C2892   1.397       .  A
C2891      H2904   1.082       .  S
C2892      C2894   1.445       .  S
C2893      N2897   1.157       .  T
C2894      N2898   1.157       .  T
C2895      N2900   1.157       .  T
C2896      N2899   1.157       .  T
C2905      C2906   1.409       .  A
C2905      C2910   1.398       .  A
C2905      C2919   1.445       .  S
C2906      C2911   1.480       .  S
C2906      C2907   1.402       .  A
C2907      C2908   1.401       .  A
C2907      H2926   1.085       .  S
C2908      C2909   1.414       .  A
C2908      C2920   1.444       .  S
C2909      C2910   1.405       .  A
C2910      H2925   1.085       .  S
C2911      C2912   1.399       .  A
C2911      C2916   1.404       .  A
C2912      C2913   1.398       .  A
C2912      H2927   1.085       .  S
C2913      C2914   1.422       .  A
C2913      C2917   1.445       .  S
C2914      C2915   1.415       .  A
C2915      C2916   1.398       .  A
C2915      H2928   1.076       .  S
C2916      C2918   1.445       .  S
C2917      N2921   1.157       .  T
C2918      N2922   1.157       .  T
C2919      N2924   1.157       .  T
C2920      N2923   1.157       .  T
C2929      C2930   1.415       .  A
C2929      C2934   1.403       .  A
C2929      C2943   1.444       .  S
C2930      C2935   1.494       .  S
C2930      C2931   1.406       .  A
C2931      C2932   1.402       .  A
C2931      H2950   1.085       .  S
C2932      C2933   1.409       .  A
C2932      C2944   1.443       .  S
C2933      C2934   1.405       .  A
C2934      H2949   1.085       .  S
C2935      C2936   1.403       .  A
C2935      C2940   1.413       .  A
C2936      C2937   1.401       .  A
C2936      H2951   1.085       .  S
C2937      C2938   1.414       .  A
C2937      C2941   1.443       .  S
C2938      C2939   1.406       .  A
C2939      C2940   1.404       .  A
C2939      H2952   1.084       .  S
C2940      C2942   1.443       .  S
C2941      N2945   1.157   1_556  T
C2942      N2946   1.157       .  T
C2943      N2948   1.157       .  T
C2944      N2947   1.157       .  T
C2953      C2954   1.413       .  A
C2953      C2958   1.403       .  A
C2953      C2967   1.443       .  S
C2954      C2959   1.495       .  S
C2954      C2955   1.407       .  A
C2955      C2956   1.404       .  A
C2955      H2974   1.085       .  S
C2956      C2957   1.410       .  A
C2956      C2968   1.444       .  S
C2957      C2958   1.405       .  A
C2958      H2973   1.085       .  S
C2959      C2960   1.405       .  A
C2959      C2964   1.412       .  A
C2960      C2961   1.405       .  A
C2960      H2975   1.085       .  S
C2961      C2962   1.416       .  A
C2961      C2965   1.443       .  S
C2962      C2963   1.406       .  A
C2963      C2964   1.404       .  A
C2963      H2976   1.083       .  S
C2964      C2966   1.444       .  S
C2965      N2969   1.157       .  T
C2966      N2970   1.157       .  T
C2967      N2972   1.157       .  T
C2968      N2971   1.157       .  T
C2977      C2978   1.413       .  A
C2977      C2982   1.404       .  A
C2977      C2991   1.443       .  S
C2978      C2983   1.492       .  S
C2978      C2979   1.402       .  A
C2979      C2980   1.401       .  A
C2979      H2998   1.085       .  S
C2980      C2981   1.417       .  A
C2980      C2992   1.444       .  S
C2981      C2982   1.404       .  A
C2982      H2997   1.084       .  S
C2983      C2984   1.401       .  A
C2983      C2988   1.412       .  A
C2984      C2985   1.403       .  A
C2984      H2999   1.085       .  S
C2985      C2986   1.423       .  A
C2985      C2989   1.445       .  S
C2986      C2987   1.405       .  A
C2987      C2988   1.403       .  A
C2987      H3000   1.084       .  S
C2988      C2990   1.443       .  S
C2989      N2993   1.157       .  T
C2990      N2994   1.157       .  T
C2991      N2996   1.157       .  T
C2992      N2995   1.157       .  T
C3001      C3002   1.410       .  A
C3001      C3006   1.399       .  A
C3001      C3015   1.444       .  S
C3002      C3007   1.490       .  S
C3002      C3003   1.406       .  A
C3003      C3004   1.405       .  A
C3003      H3022   1.085       .  S
C3004      C3005   1.412       .  A
C3004      C3016   1.443       .  S
C3005      C3006   1.408       .  A
C3006      H3021   1.085       .  S
C3007      C3008   1.402       .  A
C3007      C3012   1.410       .  A
C3008      C3009   1.403       .  A
C3008      H3023   1.085       .  S
C3009      C3010   1.421       .  A
C3009      C3013   1.444       .  S
C3010      C3011   1.410       .  A
C3011      C3012   1.401       .  A
C3011      H3024   1.084       .  S
C3012      C3014   1.444       .  S
C3013      N3017   1.158       .  T
C3014      N3018   1.157       .  T
C3015      N3020   1.157       .  T
C3016      N3019   1.157       .  T
