geometry optimzed in LAMMPS
_audit_creation_date              2020-11-30 
_audit_creation_method            'lammps2cif' 
_symmetry_space_group_name_H-M    'P1' 
_symmetry_Int_Tables_number       1 
_symmetry_cell_setting            triclinic 
loop_ 
_symmetry_equiv_pos_as_xyz 
  x,y,z 
_cell_length_a                    48.81199143 
_cell_length_b                    48.61705036426226 
_cell_length_c                    48.41245730823434 
_cell_angle_alpha                 89.71838673966163 
_cell_angle_beta                  89.8216847926842 
_cell_angle_gamma                 89.66893896835246 
loop_ 
_atom_site_label 
_atom_site_type_symbol 
_atom_site_fract_x 
_atom_site_fract_y 
_atom_site_fract_z 
_atom_site_charge 
O1          O  0.03035363  0.46630072  0.29579425    -0.80700
O2          O  0.98955462  0.56682845  0.27889746    -0.80700
O3          O  0.05877692  0.51929568  0.26194169    -0.80700
O4          O  0.94163746  0.48373867  0.27232457    -0.80600
O5          O  0.02697491  0.52715466  0.29380656    -0.80800
O6          O  0.97433693  0.47394878  0.30207970    -0.80700
O7          O  0.95901783  0.53305042  0.27744149    -0.80700
O8          O  0.05771274  0.46488084  0.25963038    -0.80700
C9          C  0.05344781  0.46179709  0.28527359     1.09000
C10         C  0.96603337  0.55763040  0.28445231     1.08900
C11         C  0.05177922  0.52851179  0.28568811     1.09000
C12         C  0.94896020  0.47547819  0.29630808     1.08900
O13         O  0.96685940  0.44548122  0.25239887    -0.80700
O14         O  0.02729649  0.55329719  0.24206864    -0.80700
O15         O  0.02619334  0.46575490  0.21004114    -0.80700
O16         O  0.93509841  0.52339427  0.22879664    -0.80700
O17         O  0.97576143  0.54398233  0.22942346    -0.80700
O18         O  0.02009104  0.43569097  0.24409536    -0.80700
O19         O  0.96451099  0.47431204  0.21751947    -0.80600
O20         O  0.03161678  0.52416888  0.20842648    -0.80700
Co21       Co  0.99861558  0.45761121  0.27337855     1.51500
Co22       Co  0.99987002  0.53266508  0.26396679     1.51700
Co23       Co  0.04087057  0.49355912  0.23520511     1.51600
Co24       Co  0.96541395  0.50472193  0.24527480     1.51500
O25         O  0.00367189  0.49393865  0.25415073    -1.42600
C26         C  0.96183671  0.45005273  0.22736720     1.09000
C27         C  0.03460275  0.54844435  0.21755347     1.09000
C28         C  0.02562168  0.44103929  0.21860861     1.09000
C29         C  0.95040884  0.54347185  0.22155164     1.09000
O30         O  0.52691434  0.02711963  0.28543094    -0.80700
O31         O  0.46878355  0.97245863  0.28619963    -0.80700
O32         O  0.46714939  0.06017965  0.25059176    -0.80700
O33         O  0.52723210  0.95885372  0.26944044    -0.80600
O34         O  0.46203626  0.03032772  0.28466916    -0.80800
O35         O  0.56415769  0.98470123  0.27457095    -0.80700
O36         O  0.47994210  0.94203475  0.25493275    -0.80700
O37         O  0.52151956  0.05854493  0.25275363    -0.80700
C38         C  0.52905392  0.05194833  0.27717827     1.09000
C39         C  0.47080651  0.94743775  0.27900264     1.08900
C40         C  0.46217957  0.05507681  0.27594495     1.09000
C41         C  0.55097184  0.96277228  0.28021135     1.08900
O42         O  0.54666012  0.97551955  0.22277618    -0.80700
O43         O  0.43585240  0.02480096  0.23136175    -0.80700
O44         O  0.52429598  0.02966167  0.20016867    -0.80700
O45         O  0.48046235  0.96864424  0.20147573    -0.80700
O46         O  0.44536358  0.97057110  0.23083754    -0.80700
O47         O  0.55461286  0.02590763  0.23335336    -0.80700
O48         O  0.52511885  0.93603948  0.21848926    -0.80600
O49         O  0.46687398  0.03114080  0.19873245    -0.80700
Co50       Co  0.53260941  0.99933125  0.25599964     1.51500
Co51       Co  0.45551071  0.99978413  0.25831584     1.51700
Co52       Co  0.49501261  0.04238530  0.22563327     1.51600
Co53       Co  0.50533967  0.96701976  0.23352805     1.51500
O54         O  0.49388092  0.00496670  0.24340181    -1.42600
C55         C  0.54634174  0.95056343  0.21401338     1.09000
C56         C  0.44207694  0.03124641  0.20660416     1.09000
C57         C  0.54846728  0.03297005  0.20880520     1.09000
C58         C  0.45554707  0.96387719  0.20740053     1.09000
O59         O  0.20475486  0.03080675  0.47193074    -0.80700
O60         O  0.20972614  0.96610097  0.52655141    -0.80700
O61         O  0.23941499  0.97755353  0.43799732    -0.80700
O62         O  0.24335522  0.02086160  0.55904563    -0.80600
O63         O  0.20730355  0.97052442  0.46890773    -0.80800
O64         O  0.20750735  0.02596321  0.53243371    -0.80700
O65         O  0.24389750  0.96723045  0.55566040    -0.80700
O66         O  0.23836063  0.03066077  0.44170193    -0.80700
C67         C  0.21307674  0.03403296  0.44701574     1.09000
C68         C  0.21876332  0.96208678  0.55066826     1.08900
C69         C  0.21485829  0.97070517  0.44383628     1.09000
C70         C  0.21796966  0.02634379  0.55654410     1.08900
O71         O  0.25983922  0.05587112  0.52860548    -0.80700
O72         O  0.26051277  0.94358345  0.46667123    -0.80700
O73         O  0.29124452  0.03294741  0.46929084    -0.80700
O74         O  0.29594769  0.96929167  0.52258973    -0.80700
O75         O  0.26385289  0.93845222  0.52048977    -0.80700
O76         O  0.25631502  0.06054708  0.47543624    -0.80700
O77         O  0.29356942  0.02590913  0.52658075    -0.80600
O78         O  0.29263321  0.97491113  0.46577350    -0.80700
Co79       Co  0.23228004  0.03917197  0.50189726     1.51500
Co80       Co  0.23546298  0.95851823  0.49600049     1.51700
Co81       Co  0.26531304  0.00358949  0.45764435     1.51600
Co82       Co  0.26863405  0.99605260  0.53717255     1.51500
O83         O  0.24998185  0.99940867  0.49814175    -1.42600
C84         C  0.28524213  0.05006088  0.53138599     1.09000
C85         C  0.28484032  0.95065690  0.46094458     1.09000
C86         C  0.28139120  0.05719585  0.46901756     1.09000
C87         C  0.28903191  0.94442144  0.52437009     1.09000
O88         O  0.02484462  0.28731990  0.53620957    -0.80700
O89         O  0.97179324  0.28697456  0.47527009    -0.80700
O90         O  0.06239353  0.25769828  0.48030393    -0.80700
O91         O  0.94238050  0.24502411  0.52804658    -0.80600
O92         O  0.03118673  0.29016002  0.47856239    -0.80800
O93         O  0.96858942  0.28086008  0.53186846    -0.80700
O94         O  0.94530048  0.25048934  0.47522016    -0.80700
O95         O  0.05844212  0.25705687  0.53377040    -0.80700
C96         C  0.04986694  0.28120291  0.53953741     1.09000
C97         C  0.94823033  0.27618139  0.47179332     1.08900
C98         C  0.05604257  0.28276454  0.47543332     1.09000
C99         C  0.94518796  0.27030168  0.53388524     1.08900
O100        O  0.97482283  0.22691278  0.55939299    -0.80700
O101        O  0.03242334  0.23902060  0.44735218    -0.80700
O102        O  0.03415292  0.20164648  0.53457009    -0.80700
O103        O  0.97800323  0.20102048  0.46852007    -0.80700
O104        O  0.97975179  0.23828268  0.44303086    -0.80700
O105        O  0.02712100  0.23474200  0.56393778    -0.80700
O106        O  0.97617425  0.19538138  0.52685441    -0.80600
O107        O  0.03583581  0.20370860  0.47561485    -0.80700
Co108      Co  0.99889830  0.25745224  0.54418606     1.51500
Co109      Co  0.00379104  0.26318547  0.46500215     1.51700
Co110      Co  0.04396340  0.22982207  0.50582296     1.51600
Co111      Co  0.96450453  0.22345645  0.49998306     1.51500
O112        O  0.00285120  0.24328556  0.50368412    -1.42600
C113        C  0.97184253  0.20202751  0.55172818     1.09000
C114        C  0.03616157  0.21338961  0.45119080     1.09000
C115        C  0.03388997  0.21003621  0.55941022     1.09000
C116        C  0.97413535  0.21295031  0.44549373     1.09000
O117        O  0.46448713  0.29365956  0.02615795    -0.80700
O118        O  0.56798348  0.27278132  0.98737960    -0.80700
O119        O  0.51906059  0.25865209  0.05704993    -0.80700
O120        O  0.48524838  0.26009155  0.93711093    -0.80600
O121        O  0.52802525  0.28926339  0.02443640    -0.80800
O122        O  0.47450112  0.29335003  0.96587769    -0.80700
O123        O  0.53479380  0.27016104  0.95594511    -0.80700
O124        O  0.46466510  0.25784921  0.05390780    -0.80700
C125        C  0.46209574  0.28340359  0.05051304     1.09000
C126        C  0.55851290  0.27939238  0.96387967     1.08900
C127        C  0.52774892  0.28259651  0.04994048     1.09000
C128        C  0.47653190  0.28439449  0.94112025     1.08900
O129        O  0.44543291  0.24207740  0.96409221    -0.80700
O130        O  0.55250884  0.23578004  0.02693210    -0.80700
O131        O  0.46218681  0.20769690  0.02602439    -0.80700
O132        O  0.52628819  0.21866880  0.93469068    -0.80700
O133        O  0.54642952  0.22343592  0.97550859    -0.80700
O134        O  0.43462054  0.24305155  0.01761683    -0.80700
O135        O  0.47640107  0.20865210  0.96266494    -0.80600
O136        O  0.52064193  0.20442103  0.03025184    -0.80700
Co137      Co  0.45756125  0.26801729  0.99387829     1.51500
Co138      Co  0.53366671  0.25830672  0.99807942     1.51700
Co139      Co  0.49205255  0.23218452  0.03906789     1.51600
Co140      Co  0.50661314  0.23711842  0.96359061     1.51500
O141        O  0.49407530  0.24904616  0.00094169    -1.42600
C142        C  0.45210592  0.21752601  0.95745738     1.09000
C143        C  0.54519817  0.21178054  0.03393240     1.09000
C144        C  0.43806684  0.21808445  0.02505318     1.09000
C145        C  0.54596933  0.21285594  0.95103746     1.09000
O146        O  0.29692992  0.52918298  0.01559512    -0.80700
O147        O  0.29580319  0.46797472  0.96869762    -0.80700
O148        O  0.26574712  0.47261895  0.05900352    -0.80700
O149        O  0.27176825  0.52456821  0.94595340    -0.80600
O150        O  0.29802937  0.46589265  0.02773895    -0.80800
O151        O  0.28252839  0.56159927  0.96985292    -0.80700
O152        O  0.26235825  0.47400440  0.93868900    -0.80700
O153        O  0.26773295  0.52709258  0.05087178    -0.80700
C154        C  0.29086775  0.53426985  0.04078186     1.09000
C155        C  0.28736079  0.46766300  0.94382590     1.08900
C156        C  0.29025282  0.46602533  0.05287065     1.09000
C157        C  0.28478782  0.54769660  0.94769738     1.08900
O158        O  0.22928747  0.54251840  0.96738255    -0.80700
O159        O  0.24586187  0.43788171  0.02726763    -0.80700
O160        O  0.21349425  0.52747737  0.02720467    -0.80700
O161        O  0.21099674  0.47080063  0.96955903    -0.80700
O162        O  0.24399572  0.43978147  0.97198113    -0.80700
O163        O  0.24563089  0.55675720  0.01543392    -0.80700
O164        O  0.21798678  0.51533800  0.93268540    -0.80600
O165        O  0.21277021  0.46837634  0.03381903    -0.80700
Co166      Co  0.26538193  0.53161734  0.98945431     1.51500
Co167      Co  0.27084108  0.45561493  0.99890160     1.51700
Co168      Co  0.23983363  0.49863632  0.03991057     1.51600
Co169      Co  0.23958222  0.49966690  0.96232620     1.51500
O170        O  0.25409927  0.49379127  0.00065680    -1.42600
C171        C  0.21430260  0.53784741  0.94583048     1.09000
C172        C  0.22123420  0.44344552  0.03442093     1.09000
C173        C  0.22230372  0.55208857  0.02615960     1.09000
C174        C  0.21883693  0.44571149  0.96796278     1.09000
O175        O  0.53146944  0.05849588  0.72583931    -0.80700
O176        O  0.46999021  0.95619313  0.72517151    -0.80700
O177        O  0.52701251  0.96873049  0.69770164    -0.80700
O178        O  0.46826059  0.02130061  0.70204924    -0.80600
O179        O  0.52027508  0.94059017  0.73265427    -0.80800
O180        O  0.47750968  0.05728031  0.72858303    -0.80700
O181        O  0.43263665  0.98244835  0.72399334    -0.80700
O182        O  0.53321728  0.02686404  0.69339209    -0.80700
C183        C  0.53547885  0.05181703  0.70068565     1.09000
C184        C  0.44464862  0.95990886  0.71842437     1.08900
C185        C  0.52713134  0.94439036  0.70744010     1.09000
C186        C  0.46812814  0.04715956  0.70634420     1.08900
O187        O  0.47873412  0.03520501  0.78472488    -0.80700
O188        O  0.52793699  0.97097164  0.78316802    -0.80700
O189        O  0.56388758  0.02480901  0.74441248    -0.80700
O190        O  0.45807241  0.97691015  0.77308943    -0.80700
O191        O  0.48128399  0.93781198  0.77643066    -0.80700
O192        O  0.53588740  0.03296746  0.77952100    -0.80700
O193        O  0.44601045  0.02742480  0.75530776    -0.80600
O194        O  0.55766835  0.97072426  0.74863072    -0.80700
Co195      Co  0.50594818  0.04337518  0.75483235     1.51500
Co196      Co  0.49781230  0.96712819  0.75579857     1.51700
Co197      Co  0.54269091  0.99809194  0.72131927     1.51600
Co198      Co  0.46638451  0.99765012  0.73545414     1.51500
O199        O  0.50626630  0.00431924  0.74099857    -1.42600
C200        C  0.45375569  0.03748460  0.77798565     1.09000
C201        C  0.55230399  0.96738238  0.77419158     1.09000
C202        C  0.55973384  0.03247626  0.76922525     1.09000
C203        C  0.46041806  0.95226246  0.78315494     1.09000
O204        O  0.74858750  0.52320154  0.05695113    -0.80700
O205        O  0.75076509  0.46581827  0.94533982    -0.80700
O206        O  0.72783066  0.55513190  0.97776186    -0.80700
O207        O  0.72400562  0.45860170  0.03432670    -0.80600
O208        O  0.73355622  0.51666596  0.95415089    -0.80800
O209        O  0.75602559  0.46799435  0.06480138    -0.80700
O210        O  0.72085739  0.45643706  0.97763909    -0.80700
O211        O  0.71741385  0.52299277  0.02384877    -0.80700
C212        C  0.72457340  0.52955265  0.04835636     1.09000
C213        C  0.72744657  0.45689990  0.95234363     1.08900
C214        C  0.72148017  0.54045860  0.95721156     1.09000
C215        C  0.73235872  0.45888061  0.05888875     1.08900
O216        O  0.80830258  0.46975568  0.03578644    -0.80700
O217        O  0.78385215  0.50897401  0.93205748    -0.80700
O218        O  0.76614742  0.55285836  0.01832534    -0.80700
O219        O  0.77670091  0.43503062  0.97673042    -0.80700
O220        O  0.80376544  0.47036720  0.96893688    -0.80700
O221        O  0.80105284  0.52654809  0.02848214    -0.80700
O222        O  0.77943659  0.43523151  0.03191010    -0.80600
O223        O  0.77999000  0.53673760  0.96852736    -0.80700
Co224      Co  0.77820135  0.49643152  0.04380705     1.51500
Co225      Co  0.77041455  0.49500627  0.96566680     1.51700
Co226      Co  0.74705062  0.52570990  0.99495173     1.51600
Co227      Co  0.75014134  0.44896843  0.00525667     1.51500
O228        O  0.76189095  0.48885907  0.00569241    -1.42600
C229        C  0.80330499  0.44426391  0.03756416     1.09000
C230        C  0.78941785  0.53146593  0.94401729     1.09000
C231        C  0.79018287  0.55024645  0.02756644     1.09000
C232        C  0.79966602  0.44440463  0.96851286     1.09000
O233        O  0.05859840  0.74265304  0.52181742    -0.80700
O234        O  0.94404195  0.74268205  0.47547762    -0.80700
O235        O  0.98338836  0.72900095  0.56380332    -0.80700
O236        O  0.03238466  0.70992775  0.46252904    -0.80600
O237        O  0.95865222  0.73157864  0.52536330    -0.80800
O238        O  0.06250640  0.74315428  0.46749173    -0.80700
O239        O  0.97438058  0.71036906  0.46691644    -0.80700
O240        O  0.02535898  0.71243866  0.52808347    -0.80700
C241        C  0.05045464  0.71928617  0.53034697     1.09000
C242        C  0.94946510  0.71801797  0.46796453     1.08900
C243        C  0.96116183  0.72462824  0.55093896     1.09000
C244        C  0.05718604  0.71789042  0.46280344     1.08900
O245        O  0.03354028  0.79609071  0.46563166    -0.80700
O246        O  0.93749892  0.78284004  0.51840443    -0.80700
O247        O  0.02566053  0.76420089  0.55406801    -0.80700
O248        O  0.97449874  0.76446451  0.44050679    -0.80700
O249        O  0.97206951  0.79565153  0.47354007    -0.80700
O250        O  0.03321971  0.79656478  0.52359542    -0.80700
O251        O  0.02904185  0.76289455  0.43503150    -0.80600
O252        O  0.97610842  0.77911764  0.54185585    -0.80700
Co253      Co  0.04437225  0.76963542  0.49440587     1.51500
Co254      Co  0.96839521  0.76525585  0.50070985     1.51700
Co255      Co  0.99905167  0.74366777  0.53117605     1.51600
Co256      Co  0.00266819  0.73699949  0.45381009     1.51500
O257        O  0.00656208  0.75344226  0.49199060    -1.42600
C258        C  0.03563365  0.78747070  0.44117933     1.09000
C259        C  0.95136155  0.78860658  0.53989286     1.09000
C260        C  0.03357605  0.78833283  0.54855308     1.09000
C261        C  0.97042386  0.78930069  0.44813464     1.09000
O262        O  0.02625949  0.53146800  0.69937207    -0.80700
O263        O  0.97538890  0.47142086  0.70383092    -0.80700
O264        O  0.06372779  0.47600357  0.73403488    -0.80700
O265        O  0.95515286  0.52956760  0.72156338    -0.80600
O266        O  0.03436012  0.46703735  0.70073477    -0.80800
O267        O  0.97937590  0.56561937  0.70844104    -0.80700
O268        O  0.94627496  0.48023418  0.73751113    -0.80700
O269        O  0.05830588  0.52988710  0.73161368    -0.80700
C270        C  0.05134948  0.53326901  0.70647675     1.09000
C271        C  0.95125233  0.46991196  0.71376827     1.08900
C272        C  0.05879988  0.46691917  0.70991652     1.09000
C273        C  0.95695267  0.55205145  0.70728185     1.08900
O274        O  0.97557539  0.55149813  0.76292672    -0.80700
O275        O  0.03292722  0.44174331  0.75477930    -0.80700
O276        O  0.03040812  0.53093398  0.78426348    -0.80700
O277        O  0.97720542  0.48278354  0.78785134    -0.80700
O278        O  0.97913077  0.44799480  0.75826107    -0.80700
O279        O  0.02441820  0.56190127  0.75138459    -0.80700
O280        O  0.94077360  0.52584044  0.77645381    -0.80600
O281        O  0.03778231  0.47237765  0.78759644    -0.80700
Co282      Co  0.99886962  0.53717257  0.72926700     1.51500
Co283      Co  0.00536475  0.45984799  0.72907791     1.51700
Co284      Co  0.04506599  0.50232709  0.75949409     1.51600
Co285      Co  0.97018452  0.50798428  0.75648725     1.51500
O286        O  0.00767303  0.49905520  0.74297788    -1.42600
C287        C  0.95371152  0.54854235  0.77761171     1.09000
C288        C  0.03917174  0.44737303  0.77969944     1.09000
C289        C  0.03278925  0.55554724  0.77575880     1.09000
C290        C  0.97513615  0.45724653  0.78252036     1.09000
O291        O  0.53287587  0.70091916  0.03247108    -0.80700
O292        O  0.44234005  0.73551129  0.97453102    -0.80700
O293        O  0.47727101  0.72833045  0.05934608    -0.80700
O294        O  0.52620941  0.74008007  0.94529478    -0.80600
O295        O  0.44714799  0.72133449  0.02761884    -0.80800
O296        O  0.53091464  0.70457119  0.97360772    -0.80700
O297        O  0.48002012  0.73063220  0.95312052    -0.80700
O298        O  0.52740920  0.73283959  0.06446619    -0.80700
C299        C  0.53653031  0.70918044  0.05712787     1.09000
C300        C  0.45495688  0.72688305  0.95395820     1.08900
C301        C  0.45693159  0.71517491  0.05081001     1.09000
C302        C  0.53254973  0.71493554  0.94961792     1.08900
O303        O  0.55869196  0.75747801  0.97813741    -0.80700
O304        O  0.45939469  0.77785509  0.04193428    -0.80700
O305        O  0.53020268  0.78586622  0.03542886    -0.80700
O306        O  0.48487354  0.78382426  0.94232860    -0.80700
O307        O  0.46566490  0.78928542  0.98341680    -0.80700
O308        O  0.55953215  0.75204990  0.03195182    -0.80700
O309        O  0.52758439  0.79008763  0.97913421    -0.80600
O310        O  0.49060909  0.77902266  0.07545447    -0.80700
Co311      Co  0.54226854  0.72867884  0.00393436     1.51500
Co312      Co  0.45876630  0.75449623  0.00664831     1.51700
Co313      Co  0.50133997  0.75793216  0.04386069     1.51600
Co314      Co  0.50060661  0.76102309  0.97011657     1.51500
O315        O  0.50217846  0.74221159  0.00614707    -1.42600
C316        C  0.55221773  0.78272785  0.97476010     1.09000
C317        C  0.46776138  0.78704148  0.06535760     1.09000
C318        C  0.55467190  0.77693659  0.03721420     1.09000
C319        C  0.46459381  0.79230245  0.95687557     1.09000
O320        O  0.80654459  0.31585196  0.62857321    -0.80700
O321        O  0.76775537  0.38154604  0.67837217    -0.80700
O322        O  0.85032313  0.34850045  0.66734375    -0.80700
O323        O  0.74583243  0.35995987  0.61359141    -0.80600
O324        O  0.81275776  0.35728175  0.68989138    -0.80800
O325        O  0.77443861  0.33518636  0.58809332    -0.80700
O326        O  0.74765828  0.40659428  0.64707897    -0.80700
O327        O  0.84692602  0.32984824  0.64141198    -0.80700
C328        C  0.82950823  0.31006115  0.63861131     1.09000
C329        C  0.74821110  0.39644574  0.67113058     1.08900
C330        C  0.83594850  0.34652287  0.68964486     1.09000
C331        C  0.75148909  0.33811181  0.60028553     1.08900
O332        O  0.81788230  0.37560016  0.57441200    -0.80700
O333        O  0.84608800  0.40308299  0.66731797    -0.80700
O334        O  0.85974796  0.34806915  0.60030106    -0.80700
O335        O  0.78889006  0.42878054  0.61142236    -0.80700
O336        O  0.79655217  0.42942609  0.65630047    -0.80700
O337        O  0.82907788  0.32244796  0.57849847    -0.80700
O338        O  0.77570618  0.38818092  0.57261604    -0.80600
O339        O  0.87715685  0.38432893  0.63928691    -0.80700
Co340      Co  0.81089245  0.34635536  0.60313659     1.51500
Co341      Co  0.80523708  0.39107578  0.66950324     1.51700
Co342      Co  0.84123374  0.37146331  0.63150507     1.51600
Co343      Co  0.76773233  0.39413769  0.61268518     1.51500
O344        O  0.79959805  0.37181013  0.63149697    -1.42600
C345        C  0.79815048  0.38468227  0.56036646     1.09000
C346        C  0.87102959  0.40143333  0.65815632     1.09000
C347        C  0.85378063  0.32911953  0.58248408     1.09000
C348        C  0.79455683  0.44187760  0.63323813     1.09000
O349        O  0.60284616  0.35349647  0.86276182    -0.80700
O350        O  0.62693798  0.41770057  0.82039111    -0.80700
O351        O  0.66006059  0.38479728  0.86155432    -0.80700
O352        O  0.57829723  0.37337317  0.77452748    -0.80600
O353        O  0.68019186  0.41585785  0.83542252    -0.80800
O354        O  0.57397158  0.37164927  0.81931959    -0.80700
O355        O  0.61909640  0.41482030  0.77592482    -0.80700
O356        O  0.64093725  0.33191774  0.86974932    -0.80700
C357        C  0.61737019  0.33867928  0.87835351     1.09000
C358        C  0.62132934  0.42949495  0.79773885     1.08900
C359        C  0.67407911  0.40734052  0.85926715     1.09000
C360        C  0.56352512  0.37606000  0.79606581     1.08900
O361        O  0.58802469  0.32071363  0.78862289    -0.80700
O362        O  0.69229366  0.36648053  0.81420806    -0.80700
O363        O  0.65967299  0.31200535  0.81856726    -0.80700
O364        O  0.65828532  0.37178684  0.75879008    -0.80700
O365        O  0.67067290  0.40705900  0.78235926    -0.80700
O366        O  0.61750563  0.30346368  0.83236260    -0.80700
O367        O  0.62123062  0.33408981  0.76093029    -0.80600
O368        O  0.69379012  0.34186580  0.85273923    -0.80700
Co369      Co  0.59725845  0.33926025  0.82507932     1.51500
Co370      Co  0.65711922  0.39064710  0.81822795     1.51700
Co371      Co  0.65920656  0.34913657  0.83658388     1.51600
Co372      Co  0.61980427  0.37280458  0.77011619     1.51500
O373        O  0.62948266  0.36134624  0.80990955    -1.42600
C374        C  0.60486538  0.31598272  0.76896745     1.09000
C375        C  0.70621261  0.35441374  0.83341554     1.09000
C376        C  0.64121928  0.29470838  0.82545632     1.09000
C377        C  0.67265042  0.39285091  0.76073992     1.09000
O378        O  0.60965825  0.17225488  0.70037824    -0.80700
O379        O  0.67335648  0.22790128  0.59059197    -0.80700
O380        O  0.67789005  0.19243139  0.66147055    -0.80700
O381        O  0.61164847  0.24791321  0.66043256    -0.80600
O382        O  0.69218351  0.18357525  0.61956075    -0.80800
O383        O  0.63500801  0.21657303  0.68171906    -0.80700
O384        O  0.65536425  0.24998585  0.62568637    -0.80700
O385        O  0.65046037  0.15275937  0.69102421    -0.80700
C386        C  0.63190086  0.15982431  0.70847137     1.09000
C387        C  0.67386337  0.24774534  0.60774303     1.08900
C388        C  0.69751635  0.18916515  0.64458091     1.09000
C389        C  0.62276375  0.23934063  0.68230524     1.08900
O390        O  0.57737343  0.21032011  0.66106349    -0.80700
O391        O  0.64721765  0.15041164  0.59762217    -0.80700
O392        O  0.61835612  0.13687532  0.65003309    -0.80700
O393        O  0.62085326  0.23686959  0.57962010    -0.80700
O394        O  0.62896194  0.19359000  0.56969401    -0.80700
O395        O  0.58566289  0.16410590  0.64609856    -0.80700
O396        O  0.57980109  0.22488694  0.61769716    -0.80600
O397        O  0.66877998  0.14022645  0.63536014    -0.80700
Co398      Co  0.61311169  0.18841110  0.66237572     1.51500
Co399      Co  0.65860857  0.18900837  0.59599428     1.51700
Co400      Co  0.64535925  0.16866736  0.65502090     1.51600
Co401      Co  0.61802248  0.23691595  0.62118160     1.51500
O402        O  0.63025257  0.19643946  0.62570849    -1.42600
C403        C  0.56560460  0.21722703  0.63829154     1.09000
C404        C  0.66231623  0.13412369  0.61080157     1.09000
C405        C  0.59306350  0.14006143  0.64794314     1.09000
C406        C  0.62172199  0.21728790  0.56241883     1.09000
O407        O  0.86264873  0.19174632  0.68262263    -0.80700
O408        O  0.82685989  0.09527846  0.72072891    -0.80700
O409        O  0.82484559  0.15321603  0.65154743    -0.80700
O410        O  0.90055813  0.14695570  0.75470169    -0.80600
O411        O  0.81509233  0.14275161  0.69340185    -0.80800
O412        O  0.87962576  0.18036087  0.73325067    -0.80700
O413        O  0.85371180  0.11476520  0.75151170    -0.80700
O414        O  0.86453392  0.17681867  0.64056196    -0.80700
C415        C  0.86040831  0.19648402  0.65720679     1.09000
C416        C  0.83132247  0.10304850  0.74535796     1.08900
C417        C  0.80825537  0.15515673  0.67159074     1.09000
C418        C  0.89261171  0.17189114  0.75390629     1.08900
O419        O  0.93064789  0.15689284  0.71214122    -0.80700
O420        O  0.81433363  0.09381133  0.66319612    -0.80700
O421        O  0.89722203  0.13146076  0.63691007    -0.80700
O422        O  0.88246945  0.07550189  0.71898210    -0.80700
O423        O  0.86534842  0.07918470  0.67763363    -0.80700
O424        O  0.91363721  0.16684349  0.65973228    -0.80700
O425        O  0.92653503  0.11177187  0.71436749    -0.80600
O426        O  0.84636942  0.10691418  0.63391502    -0.80700
Co427      Co  0.89461392  0.17128883  0.69697650     1.51500
Co428      Co  0.84157318  0.11232777  0.68579255     1.51700
Co429      Co  0.86311808  0.13803802  0.65626054     1.51600
Co430      Co  0.88955482  0.11362780  0.73183014     1.51500
O431        O  0.87339658  0.13463075  0.69809756    -1.42600
C432        C  0.94147043  0.13301305  0.71334178     1.09000
C433        C  0.82429734  0.09340200  0.63872870     1.09000
C434        C  0.91488865  0.14999746  0.63955237     1.09000
C435        C  0.87511114  0.06433580  0.69673274     1.09000
O436        O  0.66636745  0.16230606  0.91959880    -0.80700
O437        O  0.68579769  0.07160998  0.87634813    -0.80700
O438        O  0.63624124  0.09668900  0.85552059    -0.80700
O439        O  0.72429733  0.10162785  0.93187290    -0.80600
O440        O  0.66820227  0.08229776  0.82582411    -0.80800
O441        O  0.71873292  0.14645049  0.93797862    -0.80700
O442        O  0.72855788  0.06694598  0.88624497    -0.80700
O443        O  0.64042952  0.13027109  0.90121685    -0.80700
C444        C  0.64320959  0.15076212  0.91693630     1.09000
C445        C  0.70551205  0.05611711  0.88286936     1.08900
C446        C  0.64319705  0.08250033  0.83412862     1.09000
C447        C  0.72249344  0.12218918  0.94769323     1.08900
O448        O  0.73990439  0.17145515  0.88693554    -0.80700
O449        O  0.69549295  0.13147461  0.82087725    -0.80700
O450        O  0.65437125  0.15925789  0.86108808    -0.80700
O451        O  0.75749214  0.10894168  0.85811446    -0.80700
O452        O  0.72667917  0.08780031  0.83292499    -0.80700
O453        O  0.69072378  0.18440042  0.87172164    -0.80700
O454        O  0.76241350  0.13759886  0.90603735    -0.80600
O455        O  0.65582942  0.13920741  0.83836677    -0.80700
Co456      Co  0.70410794  0.16333334  0.90265729     1.51500
Co457      Co  0.69188881  0.10337517  0.85024685     1.51700
Co458      Co  0.66651719  0.11778404  0.87258934     1.51600
Co459      Co  0.73996688  0.10532613  0.89461441     1.51500
O460        O  0.70616065  0.12769733  0.88084200    -1.42600
C461        C  0.76208702  0.16068046  0.89412509     1.09000
C462        C  0.67164822  0.14052653  0.81741884     1.09000
C463        C  0.66753965  0.18276474  0.86088704     1.09000
C464        C  0.75081363  0.09747377  0.83576726     1.09000
O465        O  0.82205471  0.31812599  0.85332759    -0.80700
O466        O  0.92282358  0.28018068  0.83238553    -0.80700
O467        O  0.86777385  0.34197485  0.81921457    -0.80700
O468        O  0.86226814  0.24662316  0.89806629    -0.80600
O469        O  0.88052434  0.30173524  0.81196065    -0.80800
O470        O  0.83082865  0.26596326  0.87200007    -0.80700
O471        O  0.89920385  0.24970368  0.85669909    -0.80700
O472        O  0.83963504  0.35902817  0.85876624    -0.80700
C473        C  0.81981729  0.34392754  0.85121807     1.09000
C474        C  0.91307130  0.25587377  0.83545773     1.08900
C475        C  0.86941580  0.32246944  0.80242645     1.09000
C476        C  0.84079177  0.24490603  0.88355490     1.08900
O477        O  0.84622548  0.28713796  0.92610345    -0.80700
O478        O  0.92248482  0.34389407  0.82394657    -0.80700
O479        O  0.88037044  0.35371229  0.90070015    -0.80700
O480        O  0.93396636  0.28292649  0.88767307    -0.80700
O481        O  0.92838355  0.32484755  0.87382940    -0.80700
O482        O  0.83812935  0.33909929  0.90695817    -0.80700
O483        O  0.89139516  0.28878062  0.92715197    -0.80600
O484        O  0.89796710  0.37460866  0.84878963    -0.80700
Co485      Co  0.83627556  0.30238338  0.88812270     1.51500
Co486      Co  0.90197971  0.31449397  0.84427704     1.51700
Co487      Co  0.87785877  0.34262460  0.86090687     1.51600
Co488      Co  0.89532583  0.26998867  0.89135759     1.51500
O489        O  0.87406210  0.30113923  0.87123074    -1.42600
C490        C  0.86860583  0.28834646  0.93971386     1.09000
C491        C  0.91802807  0.36905590  0.83227992     1.09000
C492        C  0.85735195  0.35548512  0.91324608     1.09000
C493        C  0.94427413  0.30576970  0.88139128     1.09000
O494        O  0.30343766  0.19081085  0.60255926    -0.80700
O495        O  0.37922229  0.23650991  0.66591416    -0.80700
O496        O  0.34685798  0.15101801  0.66898632    -0.80700
O497        O  0.36168367  0.25084210  0.60027558    -0.80600
O498        O  0.36215643  0.18931041  0.68590103    -0.80800
O499        O  0.33605845  0.22729821  0.62887210    -0.80700
O500        O  0.40619729  0.25382344  0.63485812    -0.80700
O501        O  0.31832846  0.16031856  0.63324145    -0.80700
C502        C  0.29840078  0.17317167  0.62123324     1.09000
C503        C  0.39347612  0.25621937  0.65761183     1.08900
C504        C  0.34754885  0.16816408  0.68807712     1.09000
C505        C  0.34053681  0.24930597  0.61580889     1.08900
O506        O  0.34596500  0.21300209  0.57073154    -0.80700
O507        O  0.41392917  0.16190930  0.66710625    -0.80700
O508        O  0.35963210  0.12824647  0.60606246    -0.80700
O509        O  0.43402033  0.21058472  0.60598418    -0.80700
O510        O  0.43225737  0.21178425  0.65142999    -0.80700
O511        O  0.34434603  0.16105972  0.58085990    -0.80700
O512        O  0.39036856  0.20834069  0.56771757    -0.80600
O513        O  0.38699058  0.13191080  0.64679907    -0.80700
Co514      Co  0.34210541  0.19392832  0.60771097     1.51500
Co515      Co  0.39517490  0.19928805  0.66387498     1.51700
Co516      Co  0.36068983  0.15770636  0.63233525     1.51600
Co517      Co  0.39692507  0.22801605  0.60301781     1.51500
O518        O  0.38016568  0.19403498  0.62375679    -1.42600
C519        C  0.36729079  0.20988301  0.55587522     1.09000
C520        C  0.40809841  0.13734951  0.66032306     1.09000
C521        C  0.34839748  0.13543991  0.58430709     1.09000
C522        C  0.44614454  0.21129534  0.62925570     1.09000
O523        O  0.15683769  0.34394898  0.59273382    -0.80700
O524        O  0.21812989  0.42390780  0.65601423    -0.80700
O525        O  0.14854604  0.39793512  0.63308045    -0.80700
O526        O  0.20847435  0.38203746  0.57348762    -0.80600
O527        O  0.16985763  0.40444161  0.67261847    -0.80800
O528        O  0.21116841  0.33764292  0.57593689    -0.80700
O529        O  0.21243862  0.42319061  0.61083604    -0.80700
O530        O  0.12494616  0.34707934  0.62531963    -0.80700
C531        C  0.13140634  0.34138361  0.60051099     1.09000
C532        C  0.21309056  0.43639655  0.63322183     1.08900
C533        C  0.15025737  0.41027243  0.65612242     1.09000
C534        C  0.20944565  0.35914218  0.56155621     1.08900
O535        O  0.22924373  0.32388637  0.62943809    -0.80700
O536        O  0.19475267  0.35067292  0.68542529    -0.80700
O537        O  0.16786625  0.31643244  0.64118174    -0.80700
O538        O  0.25879007  0.39682891  0.63687087    -0.80700
O539        O  0.24266011  0.36893598  0.66781923    -0.80700
O540        O  0.18654749  0.29847069  0.60381325    -0.80700
O541        O  0.25299049  0.35205781  0.60291929    -0.80600
O542        O  0.15195370  0.35656590  0.67507715    -0.80700
Co543      Co  0.19415929  0.33516301  0.61319450     1.51500
Co544      Co  0.20641381  0.38573301  0.66879239     1.51700
Co545      Co  0.16068928  0.35879322  0.63414544     1.51600
Co546      Co  0.23089477  0.38763368  0.60692669     1.51500
O547        O  0.20002781  0.37133644  0.63096942    -1.42600
C548        C  0.25141483  0.32989990  0.61726050     1.09000
C549        C  0.17003332  0.34912963  0.69237849     1.09000
C550        C  0.17355439  0.29521919  0.62608246     1.09000
C551        C  0.26169831  0.38389788  0.65950978     1.09000
O552        O  0.36177928  0.31782486  0.79935053    -0.80700
O553        O  0.33721969  0.36830529  0.76303970    -0.80700
O554        O  0.32843097  0.36209493  0.85484913    -0.80700
O555        O  0.40357344  0.35654768  0.75122401    -0.80600
O556        O  0.31970398  0.35293989  0.81236435    -0.80800
O557        O  0.40935320  0.31407085  0.76970598    -0.80700
O558        O  0.36572458  0.39769788  0.74594596    -0.80700
O559        O  0.36556095  0.32203482  0.84458590    -0.80700
C560        C  0.35865850  0.30800362  0.82343562     1.09000
C561        C  0.34480932  0.38282320  0.74308086     1.08900
C562        C  0.31175576  0.35374852  0.83689952     1.09000
C563        C  0.40793130  0.32992989  0.74865236     1.08900
O564        O  0.43448683  0.35327427  0.79230149    -0.80700
O565        O  0.33051131  0.40848562  0.83427530    -0.80700
O566        O  0.40985634  0.36200792  0.85141091    -0.80700
O567        O  0.38775386  0.42896617  0.79207464    -0.80700
O568        O  0.34414574  0.42511234  0.78358507    -0.80700
O569        O  0.41328671  0.32345599  0.82871595    -0.80700
O570        O  0.42915415  0.39628974  0.79679720    -0.80600
O571        O  0.36931305  0.40350044  0.85741464    -0.80700
Co572      Co  0.39513284  0.33971930  0.79447393     1.51500
Co573      Co  0.33553379  0.38713417  0.79859511     1.51700
Co574      Co  0.36965209  0.36362855  0.84932461     1.51600
Co575      Co  0.39555448  0.39325358  0.77476288     1.51500
O576        O  0.37451577  0.37341933  0.80747636    -1.42600
C577        C  0.44484882  0.37632881  0.79606811     1.09000
C578        C  0.34642088  0.41573285  0.85389406     1.09000
C579        C  0.41991448  0.33808607  0.84947693     1.09000
C580        C  0.36471517  0.44011243  0.78858987     1.09000
O581        O  0.17731348  0.33383551  0.91107374    -0.80700
O582        O  0.07592057  0.28881787  0.84841885    -0.80700
O583        O  0.09799087  0.35596583  0.86531205    -0.80700
O584        O  0.11813302  0.29907576  0.93086712    -0.80600
O585        O  0.09627851  0.33411449  0.82623653    -0.80800
O586        O  0.16054873  0.28552122  0.92978809    -0.80700
O587        O  0.07745174  0.30086836  0.89175459    -0.80700
O588        O  0.13793502  0.35540250  0.90758767    -0.80700
C589        C  0.16130409  0.35325955  0.91872724     1.09000
C590        C  0.06369532  0.29763276  0.87000366     1.08900
C591        C  0.08821874  0.35409190  0.84117537     1.09000
C592        C  0.14022985  0.29435488  0.94357162     1.08900
O593        O  0.17070293  0.26019573  0.87571935    -0.80700
O594        O  0.14941696  0.30664012  0.81715791    -0.80700
O595        O  0.17991527  0.35203793  0.86481167    -0.80700
O596        O  0.09885409  0.24818180  0.86750069    -0.80700
O597        O  0.12941573  0.25997979  0.83757413    -0.80700
O598        O  0.18933240  0.30905537  0.85686730    -0.80700
O599        O  0.13985000  0.24705674  0.90548520    -0.80600
O600        O  0.14273856  0.35009670  0.82530267    -0.80700
Co601      Co  0.17148842  0.29739768  0.89113812     1.51500
Co602      Co  0.11487866  0.29744937  0.83525712     1.51700
Co603      Co  0.13831615  0.34947688  0.86715351     1.51600
Co604      Co  0.11007038  0.27687361  0.89741205     1.51500
O605        O  0.13303063  0.30591589  0.87345152    -1.42600
C606        C  0.16078572  0.24136534  0.89053716     1.09000
C607        C  0.15050147  0.33110951  0.80900502     1.09000
C608        C  0.19665611  0.33373272  0.85668673     1.09000
C609        C  0.11261428  0.24242548  0.84575013     1.09000
O610        O  0.18572576  0.14434075  0.68922728    -0.80700
O611        O  0.12821064  0.16536714  0.74178476    -0.80700
O612        O  0.13481421  0.16946807  0.64865954    -0.80700
O613        O  0.14198528  0.09695305  0.75647162    -0.80600
O614        O  0.14443903  0.18113926  0.69089650    -0.80800
O615        O  0.16875632  0.12801895  0.73920221    -0.80700
O616        O  0.10079928  0.13418610  0.75786747    -0.80700
O617        O  0.17447081  0.13332409  0.64740430    -0.80700
C618        C  0.19122790  0.14445549  0.66388490     1.09000
C619        C  0.11353790  0.15682238  0.76134500     1.08900
C620        C  0.14412222  0.18693294  0.66563168     1.09000
C621        C  0.16218299  0.11315109  0.75930848     1.08900
O622        O  0.16073707  0.07204504  0.71761753    -0.80700
O623        O  0.09037156  0.16723698  0.66940232    -0.80700
O624        O  0.13640159  0.08718091  0.64935026    -0.80700
O625        O  0.07527654  0.10755163  0.70869943    -0.80700
O626        O  0.07416713  0.15111530  0.71880354    -0.80700
O627        O  0.17691744  0.08838588  0.66822511    -0.80700
O628        O  0.11729086  0.07004823  0.70765521    -0.80600
O629        O  0.09325420  0.12642880  0.65073905    -0.80700
Co630      Co  0.17016697  0.11012795  0.70358776     1.51500
Co631      Co  0.11159503  0.16340759  0.70499969     1.51700
Co632      Co  0.13352773  0.12790893  0.65301847     1.51600
Co633      Co  0.11006965  0.10340735  0.72940266     1.51500
O634        O  0.13063198  0.12544567  0.69722604    -1.42600
C635        C  0.13989499  0.05794503  0.71130383     1.09000
C636        C  0.08250769  0.15013610  0.65126888     1.09000
C637        C  0.16085899  0.07824554  0.65023174     1.09000
C638        C  0.06148453  0.12914142  0.71290461     1.09000
O639        O  0.30608654  0.18755475  0.85595469    -0.80700
O640        O  0.27190584  0.12614798  0.82978748    -0.80700
O641        O  0.32539463  0.14500816  0.81544620    -0.80700
O642        O  0.24857519  0.13304215  0.90486759    -0.80600
O643        O  0.31323378  0.10475322  0.79904153    -0.80800
O644        O  0.26197733  0.16791552  0.87991828    -0.80700
O645        O  0.25257591  0.09831330  0.85970204    -0.80700
O646        O  0.34905461  0.17771876  0.85234986    -0.80700
C647        C  0.32983021  0.19503015  0.84947867     1.09000
C648        C  0.25104718  0.11323804  0.83806519     1.08900
C649        C  0.31926356  0.12961481  0.79473653     1.09000
C650        C  0.24327723  0.15595131  0.89293483     1.08900
O651        O  0.29334747  0.15285092  0.92996640    -0.80700
O652        O  0.34882647  0.09503240  0.84059073    -0.80700
O653        O  0.36261179  0.13551578  0.89024106    -0.80700
O654        O  0.30048714  0.07056176  0.88480965    -0.80700
O655        O  0.29569718  0.07310106  0.84047544    -0.80700
O656        O  0.33948067  0.17210944  0.90416191    -0.80700
O657        O  0.29846686  0.10766673  0.92664455    -0.80600
O658        O  0.37549823  0.13123047  0.83484594    -0.80700
Co659      Co  0.30033493  0.16769920  0.89127532     1.51500
Co660      Co  0.30917096  0.11211005  0.83703797     1.51700
Co661      Co  0.34217913  0.13688408  0.85438908     1.51600
Co662      Co  0.27746561  0.10393151  0.89277536     1.51500
O663        O  0.30594074  0.13003191  0.87424796    -1.42600
C664        C  0.29766768  0.12925717  0.94091853     1.09000
C665        C  0.37188523  0.10557105  0.83232128     1.09000
C666        C  0.36149331  0.15766799  0.90422850     1.09000
C667        C  0.29891975  0.05841140  0.86182548     1.09000
O668        O  0.58484454  0.83063197  0.67413093    -0.80700
O669        O  0.65270193  0.79094367  0.57617028    -0.80700
O670        O  0.64527438  0.87488323  0.62772393    -0.80700
O671        O  0.56804406  0.78571457  0.61256260    -0.80600
O672        O  0.64620850  0.84358830  0.59495743    -0.80800
O673        O  0.56568976  0.78102439  0.65779022    -0.80700
O674        O  0.60840828  0.79179339  0.57577799    -0.80700
O675        O  0.59422123  0.85110432  0.63440412    -0.80700
C676        C  0.58035417  0.84993853  0.65669768     1.09000
C677        C  0.63058242  0.79190283  0.56255231     1.08900
C678        C  0.64931350  0.86895426  0.60247560     1.09000
C679        C  0.55419545  0.78573533  0.63456050     1.08900
O680        O  0.61864278  0.75596296  0.67325806    -0.80700
O681        O  0.69286446  0.81520933  0.60683915    -0.80700
O682        O  0.63376341  0.84733581  0.67765069    -0.80700
O683        O  0.64038085  0.74728491  0.60312215    -0.80700
O684        O  0.66802237  0.77061852  0.62981824    -0.80700
O685        O  0.63735106  0.80437132  0.68949666    -0.80700
O686        O  0.59591322  0.73886462  0.63875044    -0.80600
O687        O  0.67437762  0.83016420  0.64543056    -0.80700
Co688      Co  0.60302799  0.79312733  0.67148996     1.51500
Co689      Co  0.65578779  0.80619334  0.61481069     1.51700
Co690      Co  0.63287561  0.83849802  0.63687940     1.51600
Co691      Co  0.60412247  0.76819572  0.60891917     1.51500
O692        O  0.61969534  0.79897248  0.63355102    -1.42600
C693        C  0.60801437  0.73550347  0.66184416     1.09000
C694        C  0.69594760  0.82528977  0.63065647     1.09000
C695        C  0.64054316  0.82927188  0.69540723     1.09000
C696        C  0.66335766  0.74939228  0.61568174     1.09000
O697        O  0.83930418  0.68290551  0.59249181    -0.80700
O698        O  0.78657525  0.57277866  0.65958834    -0.80700
O699        O  0.85300153  0.60467692  0.62883978    -0.80700
O700        O  0.77880486  0.61775836  0.57573238    -0.80600
O701        O  0.83726953  0.59414700  0.67002091    -0.80800
O702        O  0.82054107  0.63238016  0.57972818    -0.80700
O703        O  0.78459608  0.57610403  0.61416970    -0.80700
O704        O  0.86974609  0.65847605  0.61762031    -0.80700
C705        C  0.86459272  0.67715806  0.59946348     1.09000
C706        C  0.78765871  0.56170020  0.63574473     1.08900
C707        C  0.85603019  0.59192066  0.65171830     1.09000
C708        C  0.80151775  0.62326268  0.56467775     1.08900
O709        O  0.77498577  0.67192915  0.58894667    -0.80700
O710        O  0.81069326  0.64483367  0.68824055    -0.80700
O711        O  0.83401553  0.68244886  0.64714839    -0.80700
O712        O  0.74196495  0.60160718  0.64692761    -0.80700
O713        O  0.76205258  0.62417654  0.67990076    -0.80700
O714        O  0.79457843  0.68884237  0.63270490    -0.80700
O715        O  0.74486295  0.64705795  0.61271054    -0.80600
O716        O  0.85237073  0.64334463  0.67288314    -0.80700
Co717      Co  0.80925747  0.65910952  0.60904708     1.51500
Co718      Co  0.79889088  0.61028062  0.67240078     1.51700
Co719      Co  0.83783922  0.64261265  0.63374085     1.51600
Co720      Co  0.76535729  0.61177207  0.61390169     1.51500
O721        O  0.79709260  0.62963461  0.63563444    -1.42600
C722        C  0.75094610  0.66871695  0.59933557     1.09000
C723        C  0.83574541  0.64813761  0.69248890     1.09000
C724        C  0.81419035  0.69850569  0.64496919     1.09000
C725        C  0.74088894  0.61355382  0.67009459     1.09000
O726        O  0.65240392  0.57973380  0.84556356    -0.80700
O727        O  0.56030848  0.63766524  0.78496610    -0.80700
O728        O  0.60791856  0.65008118  0.86620837    -0.80700
O729        O  0.60855005  0.56118306  0.79721862    -0.80600
O730        O  0.57283322  0.65288925  0.83764249    -0.80800
O731        O  0.65314541  0.56460571  0.79410778    -0.80700
O732        O  0.56434501  0.59409329  0.79289241    -0.80700
O733        O  0.63857175  0.60884918  0.87562941    -0.80700
C734        C  0.65026636  0.58654370  0.87079778     1.09000
C735        C  0.54958792  0.61540888  0.79266028     1.08900
C736        C  0.58328524  0.65602297  0.86139911     1.09000
C737        C  0.63168889  0.54969376  0.79660172     1.08900
O738        O  0.66122207  0.62266323  0.77539619    -0.80700
O739        O  0.61675207  0.68439491  0.81558302    -0.80700
O740        O  0.67559125  0.63375011  0.84356701    -0.80700
O741        O  0.59192667  0.62514353  0.74639000    -0.80700
O742        O  0.61210316  0.65971429  0.76617319    -0.80700
O743        O  0.69406570  0.60225940  0.81672340    -0.80700
O744        O  0.63677412  0.59240163  0.75318614    -0.80600
O745        O  0.65053387  0.66823830  0.84005041    -0.80700
Co746      Co  0.65473674  0.60361217  0.81043716     1.51500
Co747      Co  0.59331853  0.65454363  0.80163519     1.51700
Co748      Co  0.63422275  0.63181839  0.84285164     1.51600
Co749      Co  0.60115713  0.59438608  0.77494564     1.51500
O750        O  0.61543163  0.61753164  0.80804320    -1.42600
C751        C  0.65622877  0.60978175  0.75346411     1.09000
C752        C  0.63789466  0.68809678  0.82971156     1.09000
C753        C  0.69692054  0.62182065  0.83396271     1.09000
C754        C  0.60325131  0.64875724  0.74453215     1.09000
O755        O  0.90486738  0.83179237  0.65981109    -0.80700
O756        O  0.86333113  0.92839415  0.68083461    -0.80700
O757        O  0.84495282  0.90310506  0.63668529    -0.80700
O758        O  0.92193762  0.89437934  0.71556821    -0.80600
O759        O  0.81253451  0.91651938  0.66577783    -0.80800
O760        O  0.92596931  0.84895842  0.71027982    -0.80700
O761        O  0.87800688  0.93107235  0.72275260    -0.80700
O762        O  0.89201827  0.86714336  0.63427240    -0.80700
C763        C  0.90603592  0.84545404  0.63702062     1.09000
C764        C  0.87205250  0.94286326  0.70037805     1.08900
C765        C  0.82303607  0.91729583  0.64157935     1.09000
C766        C  0.93654120  0.87294717  0.71235056     1.08900
O767        O  0.87540964  0.82759149  0.73784673    -0.80700
O768        O  0.81083113  0.86615057  0.69220180    -0.80700
O769        O  0.85260137  0.82926934  0.64689933    -0.80700
O770        O  0.85031086  0.88962588  0.75382995    -0.80700
O771        O  0.82335441  0.91051705  0.72346594    -0.80700
O772        O  0.85458106  0.81448942  0.68941047    -0.80700
O773        O  0.89898047  0.86008750  0.75658907    -0.80600
O774        O  0.82081718  0.85914531  0.64962194    -0.80700
Co775      Co  0.88864881  0.83373964  0.69947615     1.51500
Co776      Co  0.83858032  0.89578097  0.68752642     1.51700
Co777      Co  0.85955623  0.86918506  0.65750894     1.51600
Co778      Co  0.88585915  0.89230813  0.73363716     1.51500
O779        O  0.86955752  0.87180200  0.69942376    -1.42600
C780        C  0.88712922  0.83725312  0.75867883     1.09000
C781        C  0.80367318  0.85690189  0.66902863     1.09000
C782        C  0.84773292  0.81052192  0.66470620     1.09000
C783        C  0.82740833  0.90033516  0.74743596     1.09000
O784        O  0.85178266  0.64286943  0.90335233    -0.80700
O785        O  0.92960119  0.71532755  0.84462504    -0.80700
O786        O  0.90413430  0.64157424  0.86523810    -0.80700
O787        O  0.89109638  0.69633852  0.92812687    -0.80600
O788        O  0.91266854  0.66495464  0.82712342    -0.80800
O789        O  0.84642552  0.69358166  0.92938510    -0.80700
O790        O  0.93046212  0.70572637  0.88903981    -0.80700
O791        O  0.85410544  0.61718701  0.86582601    -0.80700
C792        C  0.84845309  0.61935664  0.89115654     1.09000
C793        C  0.94297943  0.70976453  0.86649507     1.08900
C794        C  0.91647778  0.64346084  0.84222486     1.09000
C795        C  0.86925595  0.69421609  0.94203374     1.08900
O796        O  0.82821944  0.72014234  0.87939343    -0.80700
O797        O  0.85814316  0.69036009  0.81546720    -0.80700
O798        O  0.82425736  0.66213300  0.85538135    -0.80700
O799        O  0.89960802  0.75290919  0.86759287    -0.80700
O800        O  0.87417359  0.73714133  0.83445044    -0.80700
O801        O  0.80508036  0.67130417  0.89559539    -0.80700
O802        O  0.85847477  0.74181284  0.90518461    -0.80600
O803        O  0.86578867  0.64738796  0.82226956    -0.80700
Co804      Co  0.84183704  0.68288348  0.88911170     1.51500
Co805      Co  0.89249823  0.70164363  0.83251800     1.51700
Co806      Co  0.86563924  0.65371157  0.86315798     1.51600
Co807      Co  0.89403747  0.72187659  0.89620475     1.51500
O808        O  0.87766435  0.69270687  0.87041937    -1.42600
C809        C  0.83531814  0.74110836  0.89307877     1.09000
C810        C  0.85824094  0.66643010  0.80644613     1.09000
C811        C  0.80285144  0.66235618  0.87106468     1.09000
C812        C  0.88561267  0.75701972  0.84572606     1.09000
O813        O  0.66215297  0.90845413  0.81961341    -0.80700
O814        O  0.70939289  0.84061085  0.93171988    -0.80700
O815        O  0.63880408  0.86247468  0.90569216    -0.80700
O816        O  0.72064029  0.92223008  0.88391577    -0.80600
O817        O  0.66061566  0.82378142  0.91507372    -0.80800
O818        O  0.67872193  0.92141263  0.87054902    -0.80700
O819        O  0.70981431  0.88583880  0.92690828    -0.80700
O820        O  0.63671868  0.89810119  0.85633148    -0.80700
C821        C  0.63939242  0.91045353  0.83261617     1.09000
C822        C  0.70722405  0.86470016  0.94197048     1.08900
C823        C  0.64094884  0.84053813  0.91990069     1.09000
C824        C  0.69867605  0.93499424  0.87936517     1.08900
O825        O  0.71967004  0.90434253  0.83003713    -0.80700
O826        O  0.68585417  0.80731875  0.86091674    -0.80700
O827        O  0.64889413  0.85094142  0.82520565    -0.80700
O828        O  0.75200882  0.85061132  0.90391412    -0.80700
O829        O  0.73331086  0.82117074  0.87742124    -0.80700
O830        O  0.69146539  0.85905514  0.81798273    -0.80700
O831        O  0.74820895  0.87919403  0.85457936    -0.80600
O832        O  0.64365899  0.81684838  0.86852719    -0.80700
Co833      Co  0.68467535  0.88853594  0.84522526     1.51500
Co834      Co  0.69713133  0.82569161  0.89459663     1.51700
Co835      Co  0.64753530  0.85825472  0.86601569     1.51600
Co836      Co  0.72812462  0.88250154  0.89071473     1.51500
O837        O  0.69185014  0.86324161  0.87586732    -1.42600
C838        C  0.74305803  0.89319429  0.83301809     1.09000
C839        C  0.66156785  0.79982573  0.86061036     1.09000
C840        C  0.66923991  0.84997765  0.80922331     1.09000
C841        C  0.75343614  0.82795197  0.89147775     1.09000
O842        O  0.32954857  0.83725350  0.58091401    -0.80700
O843        O  0.42452185  0.81526110  0.63653883    -0.80700
O844        O  0.37991813  0.87492515  0.64059243    -0.80700
O845        O  0.38452939  0.78261868  0.56794314    -0.80600
O846        O  0.40173109  0.84414529  0.66670748    -0.80800
O847        O  0.33944760  0.78360375  0.56518193    -0.80700
O848        O  0.42396375  0.77911180  0.60953328    -0.80700
O849        O  0.37140634  0.85184020  0.58934827    -0.80700
C850        C  0.34851601  0.85490407  0.57701874     1.09000
C851        C  0.43682380  0.79814297  0.62173667     1.08900
C852        C  0.39666276  0.86936353  0.65987448     1.09000
C853        C  0.36289816  0.78399283  0.55359892     1.08900
O854        O  0.31930926  0.76533169  0.61905322    -0.80700
O855        O  0.36870464  0.80040350  0.68665347    -0.80700
O856        O  0.32849489  0.85589904  0.62898615    -0.80700
O857        O  0.38648454  0.74485147  0.64190979    -0.80700
O858        O  0.40853721  0.77370137  0.66809815    -0.80700
O859        O  0.30904577  0.81620857  0.63355812    -0.80700
O860        O  0.35145087  0.74239039  0.59771269    -0.80600
O861        O  0.35194295  0.83669857  0.66772433    -0.80700
Co862      Co  0.32662678  0.80033814  0.60105636     1.51500
Co863      Co  0.38946893  0.80586929  0.65279158     1.51700
Co864      Co  0.36658766  0.84047622  0.62855549     1.51600
Co865      Co  0.38502733  0.76567191  0.60521934     1.51500
O866        O  0.36373560  0.80033178  0.62008438    -1.42600
C867        C  0.32891157  0.74287134  0.61087074     1.09000
C868        C  0.35414734  0.82129949  0.68858400     1.09000
C869        C  0.30771805  0.84188619  0.63504950     1.09000
C870        C  0.39984073  0.74982203  0.66394604     1.09000
O871        O  0.31130154  0.64503085  0.80406338    -0.80700
O872        O  0.41298257  0.66802602  0.77373825    -0.80700
O873        O  0.35046048  0.68008716  0.82823960    -0.80700
O874        O  0.35722936  0.59935253  0.73828486    -0.80600
O875        O  0.36683664  0.68647750  0.78879976    -0.80800
O876        O  0.32370190  0.62445891  0.75498438    -0.80700
O877        O  0.39243170  0.64212733  0.74286954    -0.80700
O878        O  0.32420364  0.64247322  0.84683028    -0.80700
C879        C  0.30552518  0.64742274  0.82914784     1.09000
C880        C  0.40543224  0.66376677  0.74877659     1.08900
C881        C  0.35243929  0.69535092  0.80764673     1.09000
C882        C  0.33553722  0.61333984  0.73478337     1.08900
O883        O  0.33911233  0.57230378  0.78035585    -0.80700
O884        O  0.40433045  0.68256620  0.83618196    -0.80700
O885        O  0.36746859  0.60314598  0.84985953    -0.80700
O886        O  0.42441029  0.61232850  0.78179280    -0.80700
O887        O  0.41611327  0.63094446  0.82194871    -0.80700
O888        O  0.32746019  0.59352215  0.83111243    -0.80700
O889        O  0.38406335  0.57267365  0.78450363    -0.80600
O890        O  0.37941774  0.65845386  0.86708700    -0.80700
Co891      Co  0.32723635  0.61012747  0.79255294     1.51500
Co892      Co  0.38914560  0.65757555  0.80657382     1.51700
Co893      Co  0.36400474  0.64105776  0.83439277     1.51600
Co894      Co  0.38805967  0.60778671  0.76442539     1.51500
O895        O  0.36431345  0.62758622  0.79354623    -1.42600
C896        C  0.36166924  0.55972057  0.78459065     1.09000
C897        C  0.39745595  0.67712574  0.86176071     1.09000
C898        C  0.34459716  0.59049387  0.85087655     1.09000
C899        C  0.43250845  0.61962229  0.80526213     1.09000
O900        O  0.18578102  0.69749452  0.60334963    -0.80700
O901        O  0.23296055  0.62092461  0.66802574    -0.80700
O902        O  0.14272176  0.64073153  0.67076859    -0.80700
O903        O  0.24568276  0.63692039  0.59988316    -0.80600
O904        O  0.18519278  0.64302213  0.68289310    -0.80800
O905        O  0.22547423  0.66643958  0.62777042    -0.80700
O906        O  0.24788349  0.59384893  0.63514389    -0.80700
O907        O  0.16371976  0.67889824  0.63884072    -0.80700
C908        C  0.17243308  0.70019562  0.62561268     1.09000
C909        C  0.25239996  0.60860339  0.65617561     1.08900
C910        C  0.16044688  0.64694243  0.68877431     1.09000
C911        C  0.24665111  0.65849254  0.61487051     1.08900
O912        O  0.20607917  0.65519664  0.57336263    -0.80700
O913        O  0.15727550  0.59134925  0.66832986    -0.80700
O914        O  0.11922878  0.65227515  0.62029077    -0.80700
O915        O  0.20074627  0.56876435  0.61024739    -0.80700
O916        O  0.20659730  0.56910313  0.65546563    -0.80700
O917        O  0.15293950  0.65443146  0.58937971    -0.80700
O918        O  0.19935326  0.61113867  0.57097676    -0.80600
O919        O  0.13920456  0.60061796  0.62742187    -0.80700
Co920      Co  0.18981879  0.65938737  0.61109332     1.51500
Co921      Co  0.19550862  0.60736210  0.66688107     1.51700
Co922      Co  0.15364918  0.63805709  0.63033172     1.51600
Co923      Co  0.22100132  0.60349710  0.60487561     1.51500
O924        O  0.19184331  0.62253733  0.62863696    -1.42600
C925        C  0.20296485  0.63391242  0.55881125     1.09000
C926        C  0.13878861  0.58744413  0.65003922     1.09000
C927        C  0.12734762  0.65735819  0.59593667     1.09000
C928        C  0.20251165  0.55598609  0.63314980     1.09000
O929        O  0.15608855  0.91333302  0.66305516    -0.80700
O930        O  0.06589483  0.84960708  0.71925481    -0.80700
O931        O  0.11388988  0.84266569  0.63642392    -0.80700
O932        O  0.11387853  0.92756683  0.71377793    -0.80600
O933        O  0.08007264  0.83766563  0.66612058    -0.80800
O934        O  0.15831409  0.92352066  0.71537608    -0.80700
O935        O  0.07025955  0.89426736  0.71747831    -0.80700
O936        O  0.13985545  0.88785680  0.63109125    -0.80700
C937        C  0.15234302  0.90921599  0.63736901     1.09000
C938        C  0.05529476  0.87328300  0.71658540     1.08900
C939        C  0.08934043  0.83652556  0.64156138     1.09000
C940        C  0.13710066  0.93862037  0.71329837     1.08900
O941        O  0.16924801  0.86602557  0.73086522    -0.80700
O942        O  0.12670507  0.80775971  0.68641691    -0.80700
O943        O  0.18069194  0.86388766  0.65848712    -0.80700
O944        O  0.09924904  0.86018756  0.75960008    -0.80700
O945        O  0.11920170  0.82718111  0.73684694    -0.80700
O946        O  0.19808104  0.89148869  0.68997883    -0.80700
O947        O  0.14371919  0.89409177  0.75505706    -0.80600
O948        O  0.15879626  0.82663375  0.66163665    -0.80700
Co949      Co  0.16011131  0.88660906  0.69654490     1.51500
Co950      Co  0.10038144  0.83447313  0.70204968     1.51700
Co951      Co  0.13910976  0.86151145  0.66137623     1.51600
Co952      Co  0.10758712  0.89285391  0.73371174     1.51500
O953        O  0.12129367  0.87209219  0.69849775    -1.42600
C954        C  0.16500683  0.87880478  0.75324839     1.09000
C955        C  0.14785353  0.80574774  0.67165822     1.09000
C956        C  0.20134271  0.87589507  0.66929940     1.09000
C957        C  0.11141411  0.83689913  0.75945140     1.09000
O958        O  0.18652813  0.68778737  0.86107468    -0.80700
O959        O  0.13105486  0.73143983  0.83665209    -0.80700
O960        O  0.14288090  0.67234676  0.81985619    -0.80700
O961        O  0.14000026  0.75016192  0.91140352    -0.80600
O962        O  0.10593229  0.69343709  0.80425721    -0.80800
O963        O  0.17325518  0.73396339  0.88580639    -0.80700
O964        O  0.10422706  0.75094809  0.86735885    -0.80700
O965        O  0.17360154  0.64550246  0.85853496    -0.80700
C966        C  0.19216286  0.66323959  0.85598616     1.09000
C967        C  0.11824616  0.75251571  0.84507876     1.08900
C968        C  0.12809136  0.68087570  0.79924573     1.09000
C969        C  0.16342693  0.75311649  0.90007708     1.08900
O970        O  0.15702411  0.70406007  0.93546511    -0.80700
O971        O  0.09273313  0.65750386  0.84446719    -0.80700
O972        O  0.13082611  0.63753440  0.89592608    -0.80700
O973        O  0.07489733  0.70365364  0.89215684    -0.80700
O974        O  0.07660771  0.71147650  0.84803960    -0.80700
O975        O  0.16992372  0.65531395  0.91016625    -0.80700
O976        O  0.11193963  0.70188558  0.93368763    -0.80600
O977        O  0.12431467  0.62490485  0.84117808    -0.80700
Co978      Co  0.16955064  0.69540082  0.89682249     1.51500
Co979      Co  0.11414934  0.69507829  0.84239221     1.51700
Co980      Co  0.13395060  0.65739149  0.85996157     1.51600
Co981      Co  0.10890574  0.72425641  0.89989002     1.51500
O982        O  0.13182851  0.69432222  0.87981363    -1.42600
C983        C  0.13392544  0.70091176  0.94729049     1.09000
C984        C  0.09978343  0.63275447  0.83720570     1.09000
C985        C  0.15283187  0.63537911  0.90993865     1.09000
C986        C  0.06254924  0.70701571  0.86958342     1.09000
O987        O  0.31445914  0.88850450  0.79881149    -0.80700
O988        O  0.26697953  0.82635955  0.88090803    -0.80700
O989        O  0.33156905  0.82355611  0.83208143    -0.80700
O990        O  0.25302943  0.89357525  0.85777587    -0.80600
O991        O  0.31422352  0.80160267  0.86701444    -0.80800
O992        O  0.27540537  0.86541974  0.83065082    -0.80700
O993        O  0.24971728  0.86031728  0.90443998    -0.80700
O994        O  0.34208043  0.85513214  0.81321588    -0.80700
C995        C  0.33002519  0.86820030  0.79370801     1.09000
C996        C  0.24741295  0.83621950  0.89457242     1.08900
C997        C  0.32276340  0.80194130  0.84242509     1.09000
C998        C  0.25347078  0.87801145  0.83648470     1.08900
O999        O  0.29376725  0.92242208  0.84071747    -0.80700
O1000       O  0.34186629  0.82903256  0.91317430    -0.80700
O1001       O  0.37471609  0.87589238  0.85411186    -0.80700
O1002       O  0.29613715  0.88940568  0.92915976    -0.80700
O1003       O  0.29166450  0.84478778  0.93188081    -0.80700
O1004       O  0.34617658  0.90689426  0.84081115    -0.80700
O1005       O  0.29761020  0.92473328  0.88530049    -0.80600
O1006       O  0.36569340  0.82835980  0.87505271    -0.80700
Co1007     Co  0.31045196  0.88397151  0.83783499     1.51500
Co1008     Co  0.30412136  0.82925920  0.89598597     1.51700
Co1009     Co  0.34201316  0.85380910  0.85507701     1.51600
Co1010     Co  0.27656137  0.89081674  0.89297059     1.51500
O1011       O  0.30897754  0.86789310  0.87656491    -1.42600
C1012       C  0.29700163  0.93693789  0.86229561     1.09000
C1013       C  0.36436289  0.82469792  0.90065460     1.09000
C1014       C  0.37102139  0.89922157  0.84422528     1.09000
C1015       C  0.29790195  0.86728763  0.94303459     1.09000
O1016       O  0.20263035  0.62638895  0.31144410    -0.80700
O1017       O  0.23710700  0.68123079  0.37068387    -0.80700
O1018       O  0.14481656  0.67449134  0.36191755    -0.80700
O1019       O  0.25390093  0.61408507  0.35254020    -0.80600
O1020       O  0.18555649  0.69112563  0.35537273    -0.80800
O1021       O  0.22614352  0.58553804  0.33234189    -0.80700
O1022       O  0.25837874  0.65041388  0.39540227    -0.80700
O1023       O  0.16521405  0.64616649  0.32362032    -0.80700
C1024       C  0.18337722  0.64187267  0.30546551     1.09000
C1025       C  0.25903059  0.67198267  0.38070625     1.08900
C1026       C  0.15996972  0.69396828  0.35343395     1.09000
C1027       C  0.24885618  0.59775820  0.33274150     1.08900
O1028       O  0.18136607  0.57856871  0.36938532    -0.80700
O1029       O  0.16569375  0.67470180  0.40977591    -0.80700
O1030       O  0.12537392  0.61997548  0.35245448    -0.80700
O1031       O  0.21815785  0.61975651  0.42634228    -0.80700
O1032       O  0.21787924  0.66509434  0.42634178    -0.80700
O1033       O  0.15677311  0.59513856  0.33002189    -0.80700
O1034       O  0.22154073  0.57782582  0.38878835    -0.80600
O1035       O  0.14858288  0.63315799  0.40367148    -0.80700
Co1036     Co  0.19421778  0.60760681  0.34526357     1.51500
Co1037     Co  0.20171293  0.67589356  0.38925002     1.51700
Co1038     Co  0.15976484  0.63550296  0.36415768     1.51600
Co1039     Co  0.23471638  0.61704545  0.38961608     1.51500
O1040       O  0.20009472  0.63750717  0.37363730    -1.42600
C1041       C  0.19964187  0.56578089  0.38213067     1.09000
C1042       C  0.14795215  0.65640587  0.41583863     1.09000
C1043       C  0.13147128  0.60045686  0.33596946     1.09000
C1044       C  0.21618430  0.64220247  0.43924278     1.09000
O1045       O  0.35576139  0.58874967  0.14340632    -0.80700
O1046       O  0.43472471  0.61130632  0.19359556    -0.80700
O1047       O  0.37544579  0.65415719  0.13682486    -0.80700
O1048       O  0.38423140  0.57075033  0.23486349    -0.80600
O1049       O  0.41160256  0.63212333  0.14814973    -0.80800
O1050       O  0.38041763  0.56379050  0.19024256    -0.80700
O1051       O  0.42659274  0.60989516  0.23774919    -0.80700
O1052       O  0.33401804  0.62616352  0.13039846    -0.80700
C1053       C  0.34066497  0.60137514  0.12539246     1.09000
C1054       C  0.44351969  0.60715069  0.21756319     1.08900
C1055       C  0.39960066  0.64759734  0.13112779     1.09000
C1056       C  0.38613970  0.55480933  0.21409400     1.08900
O1057       O  0.33297127  0.57899856  0.22376060    -0.80700
O1058       O  0.39113210  0.67910530  0.18170297    -0.80700
O1059       O  0.32576641  0.65194211  0.17745229    -0.80700
O1060       O  0.38209519  0.65141849  0.24603709    -0.80700
O1061       O  0.42027724  0.66098464  0.22569147    -0.80700
O1062       O  0.31197895  0.60971944  0.18062103    -0.80700
O1063       O  0.34429008  0.61602583  0.24506356    -0.80600
O1064       O  0.34711750  0.66760366  0.17758051    -0.80700
Co1065     Co  0.34877762  0.58857922  0.18570400     1.51500
Co1066     Co  0.41182399  0.64383904  0.18754274     1.51700
Co1067     Co  0.35609259  0.62952579  0.16333894     1.51600
Co1068     Co  0.38363539  0.61242747  0.23812534     1.51500
O1069       O  0.37641211  0.62190657  0.19727830    -1.42600
C1070       C  0.32806104  0.59652408  0.24241880     1.09000
C1071       C  0.36577778  0.68564472  0.18201961     1.09000
C1072       C  0.30593141  0.63530862  0.17859722     1.09000
C1073       C  0.40353531  0.66504866  0.24552404     1.09000
O1074       O  0.40789077  0.84320005  0.32055688    -0.80700
O1075       O  0.34973128  0.78867372  0.41903500    -0.80700
O1076       O  0.35105055  0.87880166  0.37427439    -0.80700
O1077       O  0.43209815  0.80057981  0.38119352    -0.80600
O1078       O  0.34972176  0.84485557  0.40521630    -0.80800
O1079       O  0.43319934  0.79691218  0.33545247    -0.80700
O1080       O  0.39320138  0.79582805  0.42061302    -0.80700
O1081       O  0.40302084  0.86031171  0.36237354    -0.80700
C1082       C  0.41438918  0.86089725  0.33858011     1.09000
C1083       C  0.37102531  0.79179647  0.43326764     1.08900
C1084       C  0.34578929  0.87058994  0.39860194     1.09000
C1085       C  0.44473383  0.80211425  0.35852119     1.08900
O1086       O  0.38357499  0.76606929  0.32145139    -0.80700
O1087       O  0.30744241  0.81089899  0.39348300    -0.80700
O1088       O  0.35895795  0.85566538  0.32444680    -0.80700
O1089       O  0.36822653  0.75033487  0.38798659    -0.80700
O1090       O  0.33705001  0.77339186  0.36428916    -0.80700
O1091       O  0.35750243  0.81376056  0.30892499    -0.80700
O1092       O  0.41270596  0.75231628  0.35271953    -0.80600
O1093       O  0.32324330  0.83446464  0.35780083    -0.80700
Co1094     Co  0.39414003  0.80467424  0.32364080     1.51500
Co1095     Co  0.34459343  0.80794579  0.38279230     1.51700
Co1096     Co  0.36506569  0.84475239  0.36358852     1.51600
Co1097     Co  0.40043634  0.77688110  0.38484971     1.51500
O1098       O  0.38021599  0.80665862  0.36282838    -1.42600
C1099       C  0.40073859  0.74864128  0.32971702     1.09000
C1100       C  0.30286112  0.82445016  0.37171558     1.09000
C1101       C  0.35080218  0.83877888  0.30657575     1.09000
C1102       C  0.34594704  0.75093565  0.37404413     1.09000
O1103       O  0.14560079  0.69262085  0.18887606    -0.80700
O1104       O  0.17246004  0.72253555  0.09490409    -0.80700
O1105       O  0.17525368  0.64881610  0.14817254    -0.80700
O1106       O  0.09838914  0.75724636  0.14489987    -0.80600
O1107       O  0.18717697  0.69060290  0.14035709    -0.80800
O1108       O  0.12567514  0.73992608  0.17548650    -0.80700
O1109       O  0.14334130  0.75373128  0.11125766    -0.80700
O1110       O  0.14376586  0.64923721  0.17897525    -0.80700
C1111       C  0.14936212  0.66825043  0.19596713     1.09000
C1112       C  0.16629737  0.74758388  0.10059041     1.08900
C1113       C  0.19362139  0.66694355  0.14950812     1.09000
C1114       C  0.11331273  0.76040445  0.16583751     1.08900
O1115       O  0.07303560  0.71406573  0.16022332    -0.80700
O1116       O  0.18310375  0.66371753  0.09039232    -0.80700
O1117       O  0.10278932  0.63720453  0.14179605    -0.80700
O1118       O  0.11524599  0.72024091  0.07492546    -0.80700
O1119       O  0.13184944  0.67930528  0.08130321    -0.80700
O1120       O  0.09330608  0.66423767  0.17690600    -0.80700
O1121       O  0.07361241  0.71318664  0.11460310    -0.80600
O1122       O  0.15032145  0.63599978  0.10536193    -0.80700
Co1123     Co  0.11076292  0.70269566  0.17288149     1.51500
Co1124     Co  0.15821422  0.68679743  0.11158433     1.51700
Co1125     Co  0.13644721  0.65828138  0.13856881     1.51600
Co1126     Co  0.10889565  0.73268861  0.11298522     1.51500
O1127       O  0.12775546  0.70032474  0.13465266    -1.42600
C1128       C  0.06051295  0.71203737  0.13723600     1.09000
C1129       C  0.17191947  0.63995509  0.09037686     1.09000
C1130       C  0.08992351  0.64147034  0.16399790     1.09000
C1131       C  0.12315037  0.69768939  0.06548420     1.09000
O1132       O  0.19007534  0.85652505  0.30600654    -0.80700
O1133       O  0.13030188  0.83661072  0.26672657    -0.80700
O1134       O  0.14274650  0.82268711  0.32697095    -0.80700
O1135       O  0.14526336  0.90994870  0.24385170    -0.80600
O1136       O  0.10380735  0.80893122  0.30827743    -0.80800
O1137       O  0.17404809  0.87901794  0.25879193    -0.80700
O1138       O  0.10628003  0.86924185  0.24594754    -0.80700
O1139       O  0.17753747  0.85972465  0.34855945    -0.80700
C1140       C  0.19519396  0.85224517  0.33103954     1.09000
C1141       C  0.11939827  0.84646740  0.24511916     1.08900
C1142       C  0.12635331  0.80306945  0.31964655     1.09000
C1143       C  0.16719165  0.89593817  0.24059265     1.08900
O1144       O  0.16541902  0.93247818  0.28612793    -0.80700
O1145       O  0.09663569  0.85246447  0.34191886    -0.80700
O1146       O  0.13885887  0.90276063  0.35378316    -0.80700
O1147       O  0.07908184  0.89752128  0.29277225    -0.80700
O1148       O  0.07802246  0.85329429  0.28775496    -0.80700
O1149       O  0.17931041  0.90916060  0.33423814    -0.80700
O1150       O  0.12064027  0.93475521  0.29259919    -0.80600
O1151       O  0.12981522  0.85036200  0.37329769    -0.80700
Co1152     Co  0.17525682  0.89306634  0.29614219     1.51500
Co1153     Co  0.11543584  0.84573259  0.30332488     1.51700
Co1154     Co  0.13812224  0.86471465  0.33844755     1.51600
Co1155     Co  0.11372929  0.90173107  0.27100016     1.51500
O1156       O  0.13621730  0.88075023  0.30034652    -1.42600
C1157       C  0.14377514  0.94618440  0.29188099     1.09000
C1158       C  0.10513789  0.84636624  0.36660346     1.09000
C1159       C  0.16179818  0.91520530  0.35292072     1.09000
C1160       C  0.06525064  0.87572646  0.29123150     1.09000
O1161       O  0.35478385  0.90706212  0.14164489    -0.80700
O1162       O  0.30260572  0.83941054  0.07269628    -0.80700
O1163       O  0.36543891  0.85785873  0.11485581    -0.80700
O1164       O  0.26384864  0.91700457  0.09923969    -0.80600
O1165       O  0.34761045  0.81983192  0.10023729    -0.80800
O1166       O  0.30614395  0.92332441  0.11368221    -0.80700
O1167       O  0.30510429  0.88399664  0.07777651    -0.80700
O1168       O  0.36828011  0.87415603  0.16834373    -0.80700
C1169       C  0.37242986  0.89751099  0.15860882     1.09000
C1170       C  0.30632503  0.86324900  0.06238860     1.08900
C1171       C  0.36776340  0.83618201  0.10116634     1.09000
C1172       C  0.28322624  0.93355601  0.10538608     1.08900
O1173       O  0.27563945  0.90860382  0.16351444    -0.80700
O1174       O  0.31345607  0.80098860  0.14598532    -0.80700
O1175       O  0.32267852  0.84539304  0.18233321    -0.80700
O1176       O  0.25442979  0.85475408  0.09136032    -0.80700
O1177       O  0.26826535  0.82154071  0.11869870    -0.80700
O1178       O  0.32029097  0.88969410  0.18836405    -0.80700
O1179       O  0.25316228  0.87868927  0.14002869    -0.80600
O1180       O  0.35537932  0.81388064  0.15272649    -0.80700
Co1181     Co  0.31387594  0.90293370  0.14955731     1.51500
Co1182     Co  0.30772704  0.82380671  0.11113718     1.51700
Co1183     Co  0.34319963  0.85162871  0.14819413     1.51600
Co1184     Co  0.28037880  0.88193449  0.11007795     1.51500
O1185       O  0.30822926  0.86192887  0.13184006    -1.42600
C1186       C  0.25401194  0.89518993  0.15971829     1.09000
C1187       C  0.33730905  0.79591006  0.15547827     1.09000
C1188       C  0.31913395  0.86550451  0.19811505     1.09000
C1189       C  0.25112429  0.83059822  0.10146728     1.09000
O1190       O  0.85319595  0.60480454  0.33150271    -0.80700
O1191       O  0.78803551  0.65619789  0.43452390    -0.80700
O1192       O  0.85896190  0.63585678  0.40679975    -0.80700
O1193       O  0.78942770  0.57335774  0.38780112    -0.80600
O1194       O  0.83723437  0.67414623  0.41760792    -0.80800
O1195       O  0.82582743  0.57565071  0.36145243    -0.80700
O1196       O  0.79042537  0.61103186  0.42991826    -0.80700
O1197       O  0.88114534  0.63287915  0.35410892    -0.80700
C1198       C  0.87743077  0.61425992  0.33623965     1.09000
C1199       C  0.79171537  0.63219773  0.44487599     1.08900
C1200       C  0.85734420  0.65776757  0.42129492     1.09000
C1201       C  0.80953636  0.56186475  0.37580120     1.08900
O1202       O  0.78292734  0.58948655  0.33030330    -0.80700
O1203       O  0.81343975  0.69240073  0.36498162    -0.80700
O1204       O  0.83717068  0.65389023  0.32819274    -0.80700
O1205       O  0.74717697  0.64219959  0.40294750    -0.80700
O1206       O  0.76658099  0.67435152  0.37910003    -0.80700
O1207       O  0.80361284  0.62981183  0.31318056    -0.80700
O1208       O  0.75259111  0.60986380  0.35650648    -0.80600
O1209       O  0.85579347  0.68048438  0.36979315    -0.80700
Co1210     Co  0.81376856  0.61052195  0.34640245     1.51500
Co1211     Co  0.80114230  0.67220227  0.39778362     1.51700
Co1212     Co  0.84563250  0.64047438  0.36791370     1.51600
Co1213     Co  0.77317277  0.61109577  0.39322169     1.51500
O1214       O  0.80603913  0.63569292  0.37890552    -1.42600
C1215       C  0.75851748  0.59737593  0.33407355     1.09000
C1216       C  0.83822905  0.69856556  0.36352137     1.09000
C1217       C  0.82083968  0.64789070  0.30877440     1.09000
C1218       C  0.74547367  0.66420785  0.38904842     1.09000
O1219       O  0.62656492  0.80347609  0.31220181    -0.80700
O1220       O  0.67412226  0.77348116  0.37509264    -0.80700
O1221       O  0.68472064  0.83394202  0.35893791    -0.80700
O1222       O  0.60874394  0.74851444  0.35318622    -0.80600
O1223       O  0.69607239  0.81813507  0.40044335    -0.80800
O1224       O  0.58377782  0.77876313  0.32981473    -0.80700
O1225       O  0.64404818  0.74782430  0.39723690    -0.80700
O1226       O  0.65395144  0.83737756  0.31796580    -0.80700
C1227       C  0.64403483  0.81969234  0.30239616     1.09000
C1228       C  0.66668540  0.75042032  0.38488151     1.08900
C1229       C  0.70312039  0.82833614  0.37724578     1.09000
C1230       C  0.59595044  0.75539259  0.33124524     1.08900
O1231       O  0.57371513  0.82165907  0.37147186    -0.80700
O1232       O  0.64554769  0.84031547  0.41318244    -0.80700
O1233       O  0.61372545  0.86276233  0.34263971    -0.80700
O1234       O  0.60943016  0.78326274  0.42824915    -0.80700
O1235       O  0.65425351  0.78910350  0.42865239    -0.80700
O1236       O  0.58291417  0.83859788  0.31922643    -0.80700
O1237       O  0.57052367  0.77881505  0.38555881    -0.80600
O1238       O  0.64790980  0.86884297  0.37925471    -0.80700
Co1239     Co  0.60173815  0.81368791  0.34349205     1.51500
Co1240     Co  0.65937159  0.80749060  0.39197600     1.51700
Co1241     Co  0.64294812  0.83624836  0.35666502     1.51600
Co1242     Co  0.60884427  0.76665024  0.39030989     1.51500
O1243       O  0.62533831  0.80061049  0.37311686    -1.42600
C1244       C  0.55944334  0.80138195  0.37885795     1.09000
C1245       C  0.64772187  0.86481148  0.40465640     1.09000
C1246       C  0.59286717  0.86173348  0.32651176     1.09000
C1247       C  0.63163892  0.78679790  0.44160014     1.09000
O1248       O  0.69544372  0.60702031  0.18257205    -0.80700
O1249       O  0.58939941  0.66868749  0.22284890    -0.80700
O1250       O  0.66235533  0.67976907  0.17826229    -0.80700
O1251       O  0.66276811  0.61897892  0.24432430    -0.80600
O1252       O  0.61819685  0.68750956  0.17736043    -0.80800
O1253       O  0.67237537  0.57994439  0.22589281    -0.80700
O1254       O  0.62576837  0.65623810  0.24493953    -0.80700
O1255       O  0.68645807  0.64949952  0.19155016    -0.80700
C1256       C  0.70385095  0.63129990  0.18781172     1.09000
C1257       C  0.60641757  0.67297039  0.24218493     1.08900
C1258       C  0.64307067  0.69642120  0.17722877     1.09000
C1259       C  0.67668719  0.59747891  0.24478407     1.08900
O1260       O  0.62437426  0.56716087  0.19055018    -0.80700
O1261       O  0.59951216  0.63619087  0.14718425    -0.80700
O1262       O  0.67634571  0.62322824  0.13778587    -0.80700
O1263       O  0.58102936  0.61579372  0.23652410    -0.80700
O1264       O  0.57229077  0.61927496  0.19241701    -0.80700
O1265       O  0.65031137  0.58858270  0.14573013    -0.80700
O1266       O  0.62200075  0.57394361  0.23510088    -0.80600
O1267       O  0.63536720  0.65930377  0.13571225    -0.80700
Co1268     Co  0.65756874  0.58867083  0.18674099     1.51500
Co1269     Co  0.59773432  0.65009773  0.18548030     1.51700
Co1270     Co  0.65549735  0.64315828  0.16841067     1.51600
Co1271     Co  0.62349619  0.61673797  0.23709125     1.51500
O1272       O  0.63148931  0.62354538  0.19532273    -1.42600
C1273       C  0.62012180  0.55781982  0.21426716     1.09000
C1274       C  0.61141086  0.65141583  0.13003530     1.09000
C1275       C  0.66808492  0.59975377  0.13023380     1.09000
C1276       C  0.56402716  0.61395856  0.21655560     1.09000
O1277       O  0.69764099  0.85674987  0.18798728    -0.80700
O1278       O  0.73009564  0.83031295  0.09212393    -0.80700
O1279       O  0.65723855  0.82405979  0.14403368    -0.80700
O1280       O  0.76139322  0.90554906  0.14316867    -0.80600
O1281       O  0.69955980  0.81443473  0.13725679    -0.80800
O1282       O  0.74404614  0.87938297  0.17483547    -0.80700
O1283       O  0.76011633  0.85827906  0.11164734    -0.80700
O1284       O  0.65537379  0.85474365  0.17434389    -0.80700
C1285       C  0.67345513  0.84948926  0.19250830     1.09000
C1286       C  0.75446481  0.83589580  0.09965444     1.08900
C1287       C  0.67653659  0.80693515  0.14658809     1.09000
C1288       C  0.76422732  0.89205422  0.16526096     1.08900
O1289       O  0.71476160  0.92993825  0.15552948    -0.80700
O1290       O  0.67280964  0.81763995  0.08673449    -0.80700
O1291       O  0.64261295  0.89539747  0.13592846    -0.80700
O1292       O  0.72859831  0.88505255  0.07232489    -0.80700
O1293       O  0.68751427  0.86921463  0.07631462    -0.80700
O1294       O  0.66612197  0.90633603  0.17287765    -0.80700
O1295       O  0.71833016  0.92744109  0.10981311    -0.80600
O1296       O  0.64459598  0.85030374  0.10084225    -0.80700
Co1297     Co  0.70590324  0.89178297  0.17000054     1.51500
Co1298     Co  0.69437634  0.84333857  0.10804487     1.51700
Co1299     Co  0.66546508  0.86313361  0.13450735     1.51600
Co1300     Co  0.73876265  0.89271523  0.11085389     1.51500
O1301       O  0.70650825  0.87371886  0.13187796    -1.42600
C1302       C  0.71426770  0.94121418  0.13156714     1.09000
C1303       C  0.64897668  0.82868457  0.08628156     1.09000
C1304       C  0.64399751  0.90752528  0.15865022     1.09000
C1305       C  0.70700978  0.87696116  0.06124705     1.09000
O1306       O  0.90562197  0.66073626  0.17521290    -0.80700
O1307       O  0.86865004  0.68229152  0.07858584    -0.80700
O1308       O  0.85066628  0.64015881  0.10290975    -0.80700
O1309       O  0.92786376  0.71329912  0.11291099    -0.80600
O1310       O  0.81739628  0.66782853  0.08878401    -0.80800
O1311       O  0.92905424  0.70976415  0.15864098    -0.80700
O1312       O  0.88600120  0.72274283  0.07350267    -0.80700
O1313       O  0.89533564  0.63637584  0.13864041    -0.80700
C1314       C  0.90699459  0.63819038  0.16153445     1.09000
C1315       C  0.87775324  0.70075037  0.06293950     1.08900
C1316       C  0.82924154  0.64433429  0.08794510     1.09000
C1317       C  0.94112261  0.70987655  0.13518052     1.08900
O1318       O  0.87994213  0.73937818  0.17767406    -0.80700
O1319       O  0.81444849  0.69392090  0.13999858    -0.80700
O1320       O  0.85498680  0.65010016  0.17716707    -0.80700
O1321       O  0.85854419  0.75543852  0.11224420    -0.80700
O1322       O  0.83016619  0.72487475  0.09423728    -0.80700
O1323       O  0.85618122  0.69275457  0.19037795    -0.80700
O1324       O  0.90499003  0.75715018  0.14515751    -0.80600
O1325       O  0.82590467  0.65158860  0.14549615    -0.80700
Co1326     Co  0.89125023  0.70087352  0.17255200     1.51500
Co1327     Co  0.84310796  0.68929800  0.11042398     1.51700
Co1328     Co  0.86398397  0.66027525  0.13689722     1.51600
Co1329     Co  0.89284356  0.73375376  0.11263557     1.51500
O1330       O  0.87361867  0.70163935  0.13412903    -1.42600
C1331       C  0.89430537  0.75886502  0.16894694     1.09000
C1332       C  0.80825593  0.67017822  0.14876298     1.09000
C1333       C  0.85045352  0.66820422  0.19556121     1.09000
C1334       C  0.83595132  0.74945877  0.10083626     1.09000
O1335       O  0.86169758  0.81964616  0.31823898    -0.80700
O1336       O  0.83794828  0.87400830  0.26858492    -0.80700
O1337       O  0.82992804  0.86443669  0.36081021    -0.80700
O1338       O  0.90616477  0.86843828  0.25348477    -0.80600
O1339       O  0.82066280  0.85517156  0.31793518    -0.80800
O1340       O  0.87802175  0.83755823  0.26882338    -0.80700
O1341       O  0.86554546  0.90581621  0.25423253    -0.80700
O1342       O  0.87113907  0.82931473  0.36086918    -0.80700
C1343       C  0.86236186  0.81242681  0.34308025     1.09000
C1344       C  0.84619618  0.88914259  0.24931491     1.08900
C1345       C  0.81392357  0.85425363  0.34301114     1.09000
C1346       C  0.89339109  0.84590828  0.24984970     1.08900
O1347       O  0.93199463  0.85063655  0.29215042    -0.80700
O1348       O  0.82671749  0.91000368  0.34070076    -0.80700
O1349       O  0.91093057  0.87407546  0.36073681    -0.80700
O1350       O  0.88819204  0.93161617  0.30426837    -0.80700
O1351       O  0.84492506  0.92931764  0.29306594    -0.80700
O1352       O  0.91561595  0.83388440  0.34086210    -0.80700
O1353       O  0.93103167  0.89394234  0.30313694    -0.80600
O1354       O  0.86596132  0.91165670  0.36220469    -0.80700
Co1355     Co  0.89452154  0.83807365  0.30525237     1.51500
Co1356     Co  0.83557407  0.89025401  0.30513823     1.51700
Co1357     Co  0.87078660  0.87120172  0.35726871     1.51600
Co1358     Co  0.89639221  0.89863700  0.28214106     1.51500
O1359       O  0.87507671  0.87554872  0.31317647    -1.42600
C1360       C  0.94483130  0.87258285  0.29760914     1.09000
C1361       C  0.84128701  0.91979841  0.35997171     1.09000
C1362       C  0.92309735  0.85107638  0.35904533     1.09000
C1363       C  0.86557897  0.94361030  0.30001493     1.09000
O1364       O  0.16293018  0.42269388  0.34689491    -0.80700
O1365       O  0.21736069  0.34201987  0.42708836    -0.80700
O1366       O  0.13310142  0.35952440  0.39597428    -0.80700
O1367       O  0.21224867  0.43228423  0.40286755    -0.80600
O1368       O  0.16634124  0.34008448  0.41727151    -0.80800
O1369       O  0.21497329  0.43819124  0.35848684    -0.80700
O1370       O  0.21256778  0.38631176  0.43347949    -0.80700
O1371       O  0.13657025  0.38629027  0.35130330    -0.80700
C1372       C  0.13972470  0.41121935  0.34534422     1.09000
C1373       C  0.21315581  0.36227595  0.44310979     1.08900
C1374       C  0.14081847  0.34544247  0.41606434     1.09000
C1375       C  0.21057053  0.44792313  0.38217715     1.08900
O1376       O  0.23506697  0.38805730  0.33369841    -0.80700
O1377       O  0.19601310  0.30216735  0.39061321    -0.80700
O1378       O  0.16327327  0.34531683  0.33174399    -0.80700
O1379       O  0.25545925  0.36216214  0.39923951    -0.80700
O1380       O  0.23361178  0.33755485  0.36876392    -0.80700
O1381       O  0.18524325  0.37967031  0.31320517    -0.80700
O1382       O  0.25619891  0.40887009  0.36717928    -0.80600
O1383       O  0.16165313  0.31990095  0.36670082    -0.80700
Co1384     Co  0.19948465  0.40441726  0.34183434     1.51500
Co1385     Co  0.19918313  0.34129780  0.38975303     1.51700
Co1386     Co  0.16237402  0.36176099  0.36850457     1.51600
Co1387     Co  0.23166441  0.39648726  0.39965679     1.51500
O1388       O  0.19791681  0.38127813  0.37847885    -1.42600
C1389       C  0.25591803  0.40005592  0.34239073     1.09000
C1390       C  0.17534181  0.29891722  0.37508304     1.09000
C1391       C  0.17216420  0.35771079  0.31093730     1.09000
C1392       C  0.25515424  0.34209482  0.38247869     1.09000
O1393       O  0.40217826  0.31852344  0.16430837    -0.80700
O1394       O  0.37115277  0.42575345  0.20264879    -0.80700
O1395       O  0.36327618  0.40014737  0.14513199    -0.80700
O1396       O  0.42027708  0.38526065  0.20159128    -0.80600
O1397       O  0.32826109  0.41261640  0.16923944    -0.80800
O1398       O  0.42253241  0.34099339  0.21128514    -0.80700
O1399       O  0.39661768  0.42034108  0.24005440    -0.80700
O1400       O  0.39647345  0.35699780  0.14109391    -0.80700
C1401       C  0.40848734  0.33431726  0.14403114     1.09000
C1402       C  0.38695928  0.43602138  0.22128568     1.08900
C1403       C  0.34245782  0.41513052  0.14743818     1.09000
C1404       C  0.43444736  0.36347928  0.20498227     1.08900
O1405       O  0.37019033  0.33036035  0.23963865    -0.80700
O1406       O  0.31315282  0.36640505  0.20273608    -0.80700
O1407       O  0.35108604  0.31890662  0.14913205    -0.80700
O1408       O  0.34963427  0.39055362  0.24696171    -0.80700
O1409       O  0.32051596  0.41751366  0.22514660    -0.80700
O1410       O  0.35030424  0.30831407  0.19312435    -0.80700
O1411       O  0.39772872  0.36294814  0.25218366    -0.80600
O1412       O  0.31674585  0.36307434  0.15721502    -0.80700
Co1413     Co  0.38492199  0.32668435  0.20188449     1.51500
Co1414     Co  0.34298487  0.39368230  0.20362176     1.51700
Co1415     Co  0.35779351  0.36043575  0.15057820     1.51600
Co1416     Co  0.38441159  0.38805771  0.22105665     1.51500
O1417       O  0.36847733  0.36352639  0.19125743    -1.42600
C1418       C  0.38434267  0.34136476  0.25819703     1.09000
C1419       C  0.30267777  0.36112467  0.17944651     1.09000
C1420       C  0.34518512  0.30207353  0.16850614     1.09000
C1421       C  0.32806591  0.40621194  0.24749072     1.09000
O1422       O  0.35554535  0.19037221  0.30896362    -0.80700
O1423       O  0.33128972  0.23505380  0.36342526    -0.80700
O1424       O  0.32199841  0.14481419  0.35853469    -0.80700
O1425       O  0.40254558  0.25030799  0.36093221    -0.80600
O1426       O  0.31403606  0.18693029  0.34722802    -0.80800
O1427       O  0.37440839  0.23819135  0.32887446    -0.80700
O1428       O  0.35819502  0.25095857  0.39473074    -0.80700
O1429       O  0.36089320  0.14699232  0.31975171    -0.80700
C1430       C  0.35355396  0.16545976  0.30245298     1.09000
C1431       C  0.33784528  0.25463614  0.37836734     1.08900
C1432       C  0.30561184  0.16276592  0.34894653     1.09000
C1433       C  0.38886265  0.25655818  0.33947540     1.08900
O1434       O  0.42703434  0.20982488  0.34363988    -0.80700
O1435       O  0.32303524  0.16493292  0.40374097    -0.80700
O1436       O  0.40378642  0.14383258  0.36176427    -0.80700
O1437       O  0.38040557  0.19937589  0.42225791    -0.80700
O1438       O  0.33845243  0.21355646  0.42085013    -0.80700
O1439       O  0.40742463  0.16408849  0.32166721    -0.80700
O1440       O  0.42290899  0.19838199  0.38710708    -0.80600
O1441       O  0.36265378  0.14370768  0.40245696    -0.80700
Co1442     Co  0.38885749  0.20052371  0.32862755     1.51500
Co1443     Co  0.32947973  0.20002107  0.38183744     1.51700
Co1444     Co  0.36360707  0.14852906  0.36173067     1.51600
Co1445     Co  0.38967389  0.22175369  0.38991074     1.51500
O1446       O  0.36857803  0.19205730  0.36604642    -1.42600
C1447       C  0.43797105  0.20186428  0.36628094     1.09000
C1448       C  0.33904351  0.14630802  0.41309927     1.09000
C1449       C  0.41444523  0.14484065  0.33798763     1.09000
C1450       C  0.35896090  0.20571497  0.43503620     1.09000
O1451       O  0.17227448  0.09383184  0.33357200    -0.80700
O1452       O  0.06650849  0.15670411  0.29295834    -0.80700
O1453       O  0.09121550  0.13296713  0.35702219    -0.80700
O1454       O  0.11143939  0.07549223  0.30071392    -0.80600
O1455       O  0.08745731  0.17426180  0.33944103    -0.80800
O1456       O  0.15345842  0.07863123  0.28551911    -0.80700
O1457       O  0.06933618  0.11336850  0.30418613    -0.80700
O1458       O  0.13250238  0.09352554  0.35422680    -0.80700
C1459       C  0.15665081  0.08429585  0.35260595     1.09000
C1460       C  0.05492386  0.13478198  0.30144629     1.08900
C1461       C  0.08031683  0.15654860  0.35741676     1.09000
C1462       C  0.13414363  0.06418174  0.29505575     1.08900
O1463       O  0.15974355  0.13336230  0.26172340    -0.80700
O1464       O  0.13909551  0.18770899  0.31275723    -0.80700
O1465       O  0.17297954  0.13810635  0.35328016    -0.80700
O1466       O  0.08918177  0.13943520  0.25163242    -0.80700
O1467       O  0.11831079  0.17066000  0.26386572    -0.80700
O1468       O  0.17988023  0.15039569  0.31069488    -0.80700
O1469       O  0.12981100  0.10256724  0.24953373    -0.80600
O1470       O  0.13381323  0.17481693  0.35587152    -0.80700
Co1471     Co  0.16363903  0.11618683  0.29816047     1.51500
Co1472     Co  0.10515152  0.16963821  0.30211555     1.51700
Co1473     Co  0.13119857  0.13383152  0.35159099     1.51600
Co1474     Co  0.10128955  0.10898872  0.27953890     1.51500
O1475       O  0.12487400  0.13170270  0.30817176    -1.42600
C1476       C  0.15007852  0.11782216  0.24354917     1.09000
C1477       C  0.14237623  0.19201477  0.33817160     1.09000
C1478       C  0.18855648  0.14853423  0.33493601     1.09000
C1479       C  0.10216450  0.16156443  0.24599363     1.09000
O1480       O  0.30153157  0.12605851  0.18770621    -0.80700
O1481       O  0.26536788  0.16633579  0.09011693    -0.80700
O1482       O  0.33611761  0.17001687  0.14418000    -0.80700
O1483       O  0.23293954  0.09006063  0.13800081    -0.80600
O1484       O  0.29440452  0.18012333  0.13511840    -0.80800
O1485       O  0.25326667  0.10905321  0.17289725    -0.80700
O1486       O  0.23527432  0.13926845  0.11069623    -0.80700
O1487       O  0.34282401  0.13212229  0.17125584    -0.80700
C1488       C  0.32605821  0.13296716  0.19119097     1.09000
C1489       C  0.24116300  0.16192466  0.09930962     1.08900
C1490       C  0.31697766  0.18766455  0.14500629     1.09000
C1491       C  0.23187690  0.10076181  0.16166837     1.08900
O1492       O  0.27712945  0.05973164  0.14548008    -0.80700
O1493       O  0.32325385  0.17830172  0.08528068    -0.80700
O1494       O  0.35339097  0.09828251  0.13005900    -0.80700
O1495       O  0.26713544  0.11529713  0.06843847    -0.80700
O1496       O  0.30935877  0.12602893  0.07554536    -0.80700
O1497       O  0.32822771  0.07833659  0.16216774    -0.80700
O1498       O  0.27401243  0.06885257  0.10076744    -0.80600
O1499       O  0.35153670  0.14580204  0.09941928    -0.80700
Co1500     Co  0.28987174  0.09525065  0.16414042     1.51500
Co1501     Co  0.30104139  0.15179253  0.10625947     1.51700
Co1502     Co  0.32995928  0.13079545  0.13209311     1.51600
Co1503     Co  0.25555628  0.10450660  0.10619202     1.51500
O1504       O  0.28858606  0.11995804  0.12903979    -1.42600
C1505       C  0.27624915  0.05175899  0.12033149     1.09000
C1506       C  0.34725249  0.16754231  0.08486233     1.09000
C1507       C  0.35062669  0.08020600  0.14860923     1.09000
C1508       C  0.29081967  0.11922414  0.05923284     1.09000
O1509       O  0.08660891  0.33352619  0.17796439    -0.80700
O1510       O  0.15925839  0.29217500  0.07894691    -0.80700
O1511       O  0.13605906  0.35811873  0.10117234    -0.80700
O1512       O  0.07321148  0.30320217  0.11258121    -0.80600
O1513       O  0.17622357  0.33804016  0.10156160    -0.80800
O1514       O  0.06907622  0.28841442  0.15487015    -0.80700
O1515       O  0.11623429  0.30418475  0.07647372    -0.80700
O1516       O  0.09200946  0.35508476  0.13858117    -0.80700
C1517       C  0.07929359  0.35239244  0.16124392     1.09000
C1518       C  0.13889670  0.30013733  0.06454386     1.08900
C1519       C  0.16044384  0.35685638  0.09226334     1.09000
C1520       C  0.05802902  0.29801984  0.13296698     1.08900
O1521       O  0.12291021  0.26119052  0.16838784    -0.80700
O1522       O  0.18246695  0.31029302  0.15555106    -0.80700
O1523       O  0.13201208  0.35108293  0.18329481    -0.80700
O1524       O  0.13740921  0.25210477  0.09969128    -0.80700
O1525       O  0.16488358  0.26347394  0.13274001    -0.80700
O1526       O  0.13947256  0.30768681  0.19192785    -0.80700
O1527       O  0.09456260  0.24979635  0.13642255    -0.80600
O1528       O  0.17329872  0.35345736  0.14845214    -0.80700
Co1529     Co  0.10695127  0.29790710  0.17069898     1.51500
Co1530     Co  0.16773575  0.30100679  0.11922811     1.51700
Co1531     Co  0.13216075  0.35095559  0.14135837     1.51600
Co1532     Co  0.10664711  0.28012829  0.10806639     1.51500
O1533       O  0.12792772  0.30805606  0.13418212    -1.42600
C1534       C  0.10656427  0.24388386  0.15917135     1.09000
C1535       C  0.18929673  0.33498093  0.15804615     1.09000
C1536       C  0.14024888  0.33226784  0.19963613     1.09000
C1537       C  0.15869330  0.24700635  0.11405635     1.09000
O1538       O  0.64479433  0.31261218  0.18780273    -0.80700
O1539       O  0.66672681  0.37234446  0.22590159    -0.80700
O1540       O  0.67906160  0.36003100  0.16471243    -0.80700
O1541       O  0.59217316  0.35941982  0.24935335    -0.80600
O1542       O  0.69408360  0.39806389  0.18405524    -0.80800
O1543       O  0.62108518  0.32835469  0.23502846    -0.80700
O1544       O  0.63509291  0.39671220  0.24730033    -0.80700
O1545       O  0.64315144  0.32465254  0.14473453    -0.80700
C1546       C  0.65058611  0.30744555  0.16298953     1.09000
C1547       C  0.65829918  0.38419516  0.24755219     1.08900
C1548       C  0.69933019  0.37564536  0.17197544     1.09000
C1549       C  0.60446996  0.33663425  0.25289628     1.08900
O1550       O  0.56873170  0.33884522  0.20640247    -0.80700
O1551       O  0.64992650  0.40655730  0.15119827    -0.80700
O1552       O  0.59898268  0.36245737  0.13738259    -0.80700
O1553       O  0.60637997  0.42450779  0.20051434    -0.80700
O1554       O  0.65038016  0.42553974  0.20559634    -0.80700
O1555       O  0.59328834  0.32283479  0.15868075    -0.80700
O1556       O  0.56720870  0.38414700  0.20202492    -0.80600
O1557       O  0.65157194  0.37415332  0.11901013    -0.80700
Co1558     Co  0.60824988  0.32791377  0.19702146     1.51500
Co1559     Co  0.65699456  0.38754569  0.18951172     1.51700
Co1560     Co  0.63695360  0.36462470  0.15365177     1.51600
Co1561     Co  0.60154526  0.39012429  0.22235233     1.51500
O1562       O  0.62144271  0.36701026  0.19241644    -1.42600
C1563       C  0.55500371  0.36121025  0.20322831     1.09000
C1564       C  0.65731492  0.39838662  0.12678267     1.09000
C1565       C  0.58725716  0.33901808  0.13882788     1.09000
C1566       C  0.62774791  0.43840284  0.20423202     1.09000
O1567       O  0.58412922  0.16571937  0.32585622    -0.80700
O1568       O  0.65033766  0.22202557  0.43427598    -0.80700
O1569       O  0.61927349  0.15432533  0.40735152    -0.80700
O1570       O  0.56792233  0.22804492  0.38788773    -0.80600
O1571       O  0.66052342  0.17001146  0.41677828    -0.80800
O1572       O  0.57275489  0.18548943  0.37568944    -0.80700
O1573       O  0.60522090  0.22242474  0.43030537    -0.80700
O1574       O  0.60513940  0.13394030  0.35274797    -0.80700
C1575       C  0.58791115  0.14006848  0.33323141     1.09000
C1576       C  0.62644883  0.22124319  0.44494332     1.08900
C1577       C  0.64160128  0.15256140  0.42096909     1.09000
C1578       C  0.55716663  0.20528213  0.38208211     1.08900
O1579       O  0.58289502  0.22951409  0.33475882    -0.80700
O1580       O  0.68043649  0.19187902  0.36457295    -0.80700
O1581       O  0.63865519  0.16675647  0.32859495    -0.80700
O1582       O  0.63952236  0.26403535  0.40470122    -0.80700
O1583       O  0.67108966  0.24247022  0.38132394    -0.80700
O1584       O  0.62726242  0.20695795  0.31884328    -0.80700
O1585       O  0.60651905  0.25991467  0.35877630    -0.80600
O1586       O  0.66382919  0.15046102  0.36852959    -0.80700
Co1587     Co  0.60224912  0.19493463  0.34871837     1.51500
Co1588     Co  0.66376319  0.20675731  0.39782504     1.51700
Co1589     Co  0.62467097  0.16588266  0.36816081     1.51600
Co1590     Co  0.60622397  0.24074279  0.39448367     1.51500
O1591       O  0.62766362  0.20770997  0.37815562    -1.42600
C1592       C  0.59266949  0.25382122  0.33760751     1.09000
C1593       C  0.68379491  0.16638623  0.36266159     1.09000
C1594       C  0.63907461  0.18580921  0.31131174     1.09000
C1595       C  0.66310284  0.26372584  0.39348335     1.09000
O1596       O  0.81421920  0.36173255  0.31080792    -0.80700
O1597       O  0.77403840  0.33838498  0.41267805    -0.80700
O1598       O  0.84221166  0.32266672  0.35512164    -0.80700
O1599       O  0.74589301  0.40806067  0.35255207    -0.80600
O1600       O  0.80126465  0.31848786  0.37050022    -0.80800
O1601       O  0.76622581  0.38261470  0.32200498    -0.80700
O1602       O  0.74604922  0.36374000  0.38698128    -0.80700
O1603       O  0.85569249  0.35817079  0.32619258    -0.80700
C1604       C  0.83856440  0.35377501  0.30713213     1.09000
C1605       C  0.75087489  0.34235035  0.40093941     1.08900
C1606       C  0.82109649  0.30796509  0.35789846     1.09000
C1607       C  0.74484607  0.39429545  0.33030678     1.08900
O1608       O  0.79170094  0.43421720  0.34296581    -0.80700
O1609       O  0.83206642  0.32309764  0.41871602    -0.80700
O1610       O  0.86452958  0.39548442  0.36614893    -0.80700
O1611       O  0.77814145  0.39139560  0.42699494    -0.80700
O1612       O  0.82002096  0.37673764  0.42446195    -0.80700
O1613       O  0.84139483  0.41253548  0.33106735    -0.80700
O1614       O  0.78880524  0.43072032  0.38812327    -0.80600
O1615       O  0.86259042  0.34962616  0.39817806    -0.80700
Co1616     Co  0.80312177  0.39615025  0.32963590     1.51500
Co1617     Co  0.81078885  0.34863884  0.39571221     1.51700
Co1618     Co  0.84111674  0.36313707  0.36490505     1.51600
Co1619     Co  0.76771632  0.39717244  0.38724738     1.51500
O1620       O  0.80057488  0.37727152  0.36803094    -1.42600
C1621       C  0.79369628  0.44485576  0.36697397     1.09000
C1622       C  0.85698725  0.33096835  0.41611015     1.09000
C1623       C  0.86243509  0.41259377  0.34663298     1.09000
C1624       C  0.80076936  0.38664595  0.43877028     1.09000
O1625       O  0.65314530  0.09537273  0.17449619    -0.80700
O1626       O  0.69663955  0.11896934  0.07053756    -0.80700
O1627       O  0.63442500  0.16637355  0.12063893    -0.80700
O1628       O  0.71504114  0.07560444  0.11634552    -0.80600
O1629       O  0.64875728  0.14339312  0.08454770    -0.80800
O1630       O  0.69737973  0.07050750  0.15688491    -0.80700
O1631       O  0.73802266  0.11613613  0.08676242    -0.80700
O1632       O  0.63144636  0.11919706  0.14414608    -0.80700
C1633       C  0.63168073  0.09999643  0.16125124     1.09000
C1634       C  0.72172141  0.11562537  0.06618111     1.08900
C1635       C  0.63096861  0.15856074  0.09580229     1.09000
C1636       C  0.70524093  0.06002686  0.13454559     1.08900
O1637       O  0.73196750  0.11568960  0.17450371    -0.80700
O1638       O  0.67818112  0.18908550  0.10713683    -0.80700
O1639       O  0.64182743  0.16251023  0.17906217    -0.80700
O1640       O  0.73502070  0.15167292  0.13632198    -0.80700
O1641       O  0.72650126  0.16489864  0.09453175    -0.80700
O1642       O  0.68230173  0.14444119  0.19057707    -0.80700
O1643       O  0.75950586  0.10184964  0.14059956    -0.80600
O1644       O  0.68575552  0.17908558  0.14987260    -0.80700
Co1645     Co  0.69079371  0.10915983  0.16835756     1.51500
Co1646     Co  0.68736443  0.15192590  0.09144498     1.51700
Co1647     Co  0.66006258  0.14749615  0.14770400     1.51600
Co1648     Co  0.72419441  0.11370412  0.12699211     1.51500
O1649       O  0.68567525  0.12586555  0.12576911    -1.42600
C1650       C  0.75621573  0.10952970  0.16555476     1.09000
C1651       C  0.68265135  0.19713705  0.13142180     1.09000
C1652       C  0.66024035  0.15794526  0.19715467     1.09000
C1653       C  0.74067005  0.16671769  0.11618462     1.09000
O1654       O  0.89584812  0.18267943  0.33968253    -0.80700
O1655       O  0.83987706  0.07755145  0.28931781    -0.80700
O1656       O  0.85911043  0.09855116  0.36544547    -0.80700
O1657       O  0.92237703  0.11243487  0.30757723    -0.80600
O1658       O  0.82246597  0.09109744  0.33956257    -0.80800
O1659       O  0.92164003  0.15596021  0.30649005    -0.80700
O1660       O  0.88300230  0.07670982  0.30051516    -0.80700
O1661       O  0.89606404  0.14385205  0.36282676    -0.80700
C1662       C  0.90471690  0.16818873  0.35983860     1.09000
C1663       C  0.86115176  0.06394829  0.29588784     1.08900
C1664       C  0.83767575  0.08462449  0.36008886     1.09000
C1665       C  0.93521592  0.13431736  0.30944537     1.08900
O1666       O  0.89451562  0.19286583  0.28152472    -0.80700
O1667       O  0.80724664  0.14619623  0.31899435    -0.80700
O1668       O  0.84793160  0.17991212  0.35306628    -0.80700
O1669       O  0.86078491  0.10817851  0.25380819    -0.80700
O1670       O  0.82950698  0.13475883  0.27061300    -0.80700
O1671       O  0.84536084  0.18423726  0.30776997    -0.80700
O1672       O  0.89810770  0.15097710  0.26174836    -0.80600
O1673       O  0.81487801  0.13603157  0.36150374    -0.80700
Co1674     Co  0.88105974  0.16562571  0.30475505     1.51500
Co1675     Co  0.82723464  0.11410419  0.30503524     1.51700
Co1676     Co  0.85618734  0.13859542  0.35794523     1.51600
Co1677     Co  0.88924799  0.11343125  0.28421876     1.51500
O1678       O  0.86426864  0.13022251  0.31634769    -1.42600
C1679       C  0.90001750  0.17801654  0.26050674     1.09000
C1680       C  0.79834648  0.14399433  0.34315949     1.09000
C1681       C  0.84050954  0.19377915  0.33164426     1.09000
C1682       C  0.83888439  0.12186359  0.25038722     1.09000
O1683       O  0.87701710  0.29390349  0.18949053    -0.80700
O1684       O  0.82166593  0.26283212  0.12480621    -0.80700
O1685       O  0.83157349  0.35190287  0.14348789    -0.80700
O1686       O  0.89145413  0.24285575  0.14600773    -0.80600
O1687       O  0.81307369  0.31186874  0.14455309    -0.80800
O1688       O  0.91754344  0.27356930  0.16655607    -0.80700
O1689       O  0.85408316  0.23976434  0.10328725    -0.80700
O1690       O  0.85563085  0.33034941  0.18180232    -0.80700
C1691       C  0.86160822  0.31186038  0.19852949     1.09000
C1692       C  0.83096393  0.24070362  0.11538467     1.08900
C1693       C  0.81039606  0.33731382  0.14718488     1.09000
C1694       C  0.90726608  0.24946237  0.16570286     1.08900
O1695       O  0.92244142  0.31780117  0.12589275    -0.80700
O1696       O  0.83499237  0.33701805  0.09387116    -0.80700
O1697       O  0.88824566  0.36643046  0.15796374    -0.80700
O1698       O  0.88598767  0.28098730  0.07371333    -0.80700
O1699       O  0.84101330  0.28442535  0.07284087    -0.80700
O1700       O  0.91627048  0.33517752  0.17767404    -0.80700
O1701       O  0.92688627  0.27537096  0.11337429    -0.80600
O1702       O  0.87713064  0.34823499  0.10489703    -0.80700
Co1703     Co  0.89614268  0.30755569  0.15596417     1.51500
Co1704     Co  0.83012069  0.29875352  0.11033557     1.51700
Co1705     Co  0.86989027  0.33476233  0.14283555     1.51600
Co1706     Co  0.88800641  0.26256976  0.11020934     1.51500
O1707       O  0.86688023  0.29428999  0.12972778    -1.42600
C1708       C  0.93795082  0.29809122  0.11879204     1.09000
C1709       C  0.85515479  0.35349753  0.09193420     1.09000
C1710       C  0.90926363  0.36054977  0.17283265     1.09000
C1711       C  0.86391494  0.28347136  0.06033253     1.09000
O1712       O  0.69103087  0.03579779  0.52444577    -0.80700
O1713       O  0.69233752  0.97580679  0.46492677    -0.80700
O1714       O  0.72592260  0.06274477  0.46828515    -0.80700
O1715       O  0.72092337  0.94605101  0.52308191    -0.80600
O1716       O  0.69249685  0.03317927  0.46460785    -0.80800
O1717       O  0.68806002  0.97708788  0.52501122    -0.80700
O1718       O  0.72555869  0.94584946  0.46936211    -0.80700
O1719       O  0.72643970  0.06289271  0.52164940    -0.80700
C1720       C  0.70202709  0.05885089  0.52926457     1.09000
C1721       C  0.70085117  0.95124697  0.46341653     1.08900
C1722       C  0.70065440  0.05779455  0.46347606     1.09000
C1723       C  0.69629449  0.95265429  0.52944107     1.08900
O1724       O  0.73867275  0.97741447  0.55570128    -0.80700
O1725       O  0.74687620  0.03062279  0.43739999    -0.80700
O1726       O  0.77647031  0.03253592  0.52671545    -0.80700
O1727       O  0.77827565  0.97291356  0.46958674    -0.80700
O1728       O  0.74650733  0.97699091  0.43796407    -0.80700
O1729       O  0.74150439  0.03018941  0.55508562    -0.80700
O1730       O  0.77412004  0.97385141  0.52832492    -0.80600
O1731       O  0.77854640  0.03045177  0.46897877    -0.80700
Co1732     Co  0.71519586  0.00507053  0.53584719     1.51500
Co1733     Co  0.71956552  0.00420619  0.45506062     1.51700
Co1734     Co  0.75147720  0.04335671  0.49604680     1.51600
Co1735     Co  0.74952641  0.96356545  0.49757473     1.51500
O1736       O  0.73373303  0.00401212  0.49623334    -1.42600
C1737       C  0.76372868  0.97146083  0.55224351     1.09000
C1738       C  0.77194181  0.03348584  0.44406024     1.09000
C1739       C  0.76658449  0.03546043  0.55087762     1.09000
C1740       C  0.77122379  0.97126266  0.44435827     1.09000
C1741       C  0.82645019  0.06452788  0.38064599    -0.00700
C1742       C  0.83351514  0.06733767  0.40863368    -0.12600
C1743       C  0.81699195  0.05620352  0.42972138     0.01600
C1744       C  0.79282439  0.04164532  0.42297097    -0.00800
C1745       C  0.78747144  0.03644306  0.39505843    -0.12500
C1746       C  0.80406319  0.04728440  0.37405037     0.01400
H1747       H  0.85054907  0.08036907  0.41425326     0.14400
H1748       H  0.76945280  0.02484295  0.38949394     0.14400
C1749       C  0.79639673  0.04155365  0.34589771     0.36100
C1750       C  0.82390644  0.06263084  0.45793588     0.36000
N1751       N  0.78978690  0.03693666  0.32347852    -0.44300
N1752       N  0.82936576  0.06791426  0.48053809    -0.44300
C1753       C  0.90813050  0.19268903  0.23461803    -0.00700
C1754       C  0.92114520  0.21835246  0.23694524    -0.12600
C1755       C  0.92360815  0.23627258  0.21425596     0.01600
C1756       C  0.91197341  0.22908516  0.18855182    -0.00800
C1757       C  0.90161250  0.20225023  0.18561610    -0.12500
C1758       C  0.89998364  0.18401795  0.20812915     0.01400
H1759       H  0.92857277  0.22493992  0.25693297     0.14400
H1760       H  0.89364465  0.19572702  0.16582919     0.14400
C1761       C  0.88873682  0.15713780  0.20336877     0.36100
C1762       C  0.93739290  0.26211219  0.21844680     0.36000
N1763       N  0.88016118  0.13553056  0.19875902    -0.44300
N1764       N  0.94870719  0.28267684  0.22181645    -0.44300
C1765       C  0.77979414  0.11455294  0.18446309    -0.00700
C1766       C  0.80325594  0.09754682  0.18398463    -0.12600
C1767       C  0.82369005  0.09977269  0.20451441     0.01600
C1768       C  0.82164555  0.12053648  0.22492475    -0.00800
C1769       C  0.79935402  0.13879859  0.22365148    -0.12500
C1770       C  0.77813820  0.13527958  0.20492905     0.01400
H1771       H  0.80471395  0.08129435  0.16878626     0.14400
H1772       H  0.79723380  0.15492606  0.23895049     0.14400
C1773       C  0.75394239  0.15188527  0.20950307     0.36100
C1774       C  0.84531844  0.07943053  0.20516653     0.36000
N1775       N  0.73444533  0.16455938  0.21452151    -0.44300
N1776       N  0.86257723  0.06301670  0.20577387    -0.44300
C1777       C  0.76530650  0.18390894  0.11703403    -0.00700
C1778       C  0.78483400  0.18183054  0.09569312    -0.12600
C1779       C  0.80849588  0.19813111  0.09581227     0.01600
C1780       C  0.81251390  0.21688742  0.11751803    -0.00800
C1781       C  0.79410751  0.21701111  0.13985193    -0.12500
C1782       C  0.77047823  0.20125653  0.13953976     0.01400
H1783       H  0.78143543  0.16769973  0.07879682     0.14400
H1784       H  0.79713556  0.23119276  0.15681998     0.14400
C1785       C  0.75079268  0.20583661  0.16125075     0.36100
C1786       C  0.82753191  0.19606476  0.07305108     0.36000
N1787       N  0.73557508  0.21081125  0.17888158    -0.44300
N1788       N  0.84291656  0.19428168  0.05490170    -0.44300
C1789       C  0.84541454  0.33849997  0.28112150    -0.00700
C1790       C  0.82357491  0.33106055  0.26362650    -0.12600
C1791       C  0.82822741  0.31966820  0.23748258     0.01600
C1792       C  0.85512816  0.31500037  0.22823643    -0.00800
C1793       C  0.87694786  0.32017990  0.24634411    -0.12500
C1794       C  0.87241659  0.33190337  0.27250583     0.01400
H1795       H  0.80257518  0.33488283  0.26995728     0.14400
H1796       H  0.89781510  0.31696880  0.23920509     0.14400
C1797       C  0.89606449  0.33816153  0.28903746     0.36100
C1798       C  0.80503753  0.31304608  0.22040570     0.36000
N1799       N  0.91545574  0.34289206  0.30179426    -0.44300
N1800       N  0.78631782  0.30742763  0.20700675    -0.44300
C1801       C  0.82054424  0.27871865  0.34885482    -0.00700
C1802       C  0.83187791  0.27156240  0.32327304    -0.12600
C1803       C  0.83561668  0.24390152  0.31579418     0.01600
C1804       C  0.82970339  0.22253229  0.33500396    -0.00800
C1805       C  0.81636103  0.22973563  0.35976243    -0.12500
C1806       C  0.81104057  0.25740640  0.36642778     0.01400
H1807       H  0.83827854  0.28768972  0.30919245     0.14400
H1808       H  0.81078738  0.21372249  0.37437753     0.14400
C1809       C  0.79715945  0.26328238  0.39215378     0.36100
C1810       C  0.84640122  0.23857586  0.28855881     0.36000
N1811       N  0.78576865  0.26787911  0.41263907    -0.44300
N1812       N  0.85456164  0.23501837  0.26638811    -0.44300
C1813       C  0.71150897  0.15690652  0.35484221    -0.00700
C1814       C  0.72551139  0.13867286  0.37236651    -0.12600
C1815       C  0.75399706  0.13494819  0.36991899     0.01600
C1816       C  0.76872469  0.14862542  0.34868885    -0.00800
C1817       C  0.75439967  0.16619861  0.33073501    -0.12500
C1818       C  0.72637888  0.17097639  0.33401206     0.01400
H1819       H  0.71453073  0.12882968  0.38921363     0.14400
H1820       H  0.76535472  0.17706756  0.31452076     0.14400
C1821       C  0.71381663  0.19161026  0.31648556     0.36100
C1822       C  0.76744412  0.11787550  0.39019466     0.36000
N1823       N  0.70422866  0.20854743  0.30262742    -0.44300
N1824       N  0.77785044  0.10461609  0.40708743    -0.44300
C1825       C  0.64894956  0.18131535  0.28249521    -0.00700
C1826       C  0.63930269  0.19880063  0.26135585    -0.12600
C1827       C  0.64249485  0.19189691  0.23336475     0.01600
C1828       C  0.65735430  0.16801521  0.22597094    -0.00800
C1829       C  0.66865295  0.15162943  0.24703590    -0.12500
C1830       C  0.66397415  0.15745637  0.27490648     0.01400
H1831       H  0.62763112  0.21703457  0.26666817     0.14400
H1832       H  0.67980192  0.13300552  0.24171739     0.14400
C1833       C  0.67355731  0.13741914  0.29483906     0.36100
C1834       C  0.62922866  0.20899870  0.21291668     0.36000
N1835       N  0.68105375  0.12081457  0.31031835    -0.44300
N1836       N  0.61822075  0.22260265  0.19665628    -0.44300
C1837       C  0.68127302  0.08081430  0.45550484    -0.00700
C1838       C  0.68414027  0.10665787  0.46796373    -0.12600
C1839       C  0.66836754  0.12956507  0.45959977     0.01600
C1840       C  0.64956801  0.12748213  0.43745750    -0.00800
C1841       C  0.64520854  0.10120033  0.42623677    -0.12500
C1842       C  0.66062760  0.07804035  0.43511056     0.01400
H1843       H  0.69921455  0.10912738  0.48403538     0.14400
H1844       H  0.63132202  0.09909892  0.40893969     0.14400
C1845       C  0.65638656  0.05223382  0.42120683     0.36100
C1846       C  0.67247033  0.15534703  0.47365832     0.36000
N1847       N  0.65294545  0.03158357  0.40997898    -0.44300
N1848       N  0.67574303  0.17589727  0.48511792    -0.44300
C1849       C  0.68315576  0.28654150  0.39566224    -0.00700
C1850       C  0.70249078  0.28880865  0.37424923    -0.12600
C1851       C  0.72490838  0.30625813  0.37627204     0.01600
C1852       C  0.72935539  0.32122288  0.40069872    -0.00800
C1853       C  0.70956262  0.32012840  0.42181809    -0.12500
C1854       C  0.68626775  0.30326920  0.41929680     0.01400
H1855       H  0.70004454  0.27680369  0.35558382     0.14400
H1856       H  0.71182284  0.33313105  0.43979823     0.14400
C1857       C  0.66577780  0.30419828  0.44078639     0.36100
C1858       C  0.74235745  0.30924106  0.35229182     0.36000
N1859       N  0.64922883  0.30578663  0.45787731    -0.44300
N1860       N  0.75583668  0.31161635  0.33272961    -0.44300
C1861       C  0.72831499  0.36690894  0.16612952    -0.00700
C1862       C  0.73279215  0.34642423  0.14624734    -0.12600
C1863       C  0.75925674  0.33739719  0.13943568     0.01600
C1864       C  0.78245596  0.34882576  0.15254534    -0.00800
C1865       C  0.77825981  0.36968903  0.17207727    -0.12500
C1866       C  0.75155942  0.37861426  0.17912807     0.01400
H1867       H  0.71547556  0.33740974  0.13568875     0.14400
H1868       H  0.79578330  0.37829788  0.18261083     0.14400
C1869       C  0.74872662  0.39889957  0.20063058     0.36100
C1870       C  0.76195355  0.31660631  0.11833055     0.36000
N1871       N  0.74645556  0.41505924  0.21797692    -0.44300
N1872       N  0.76410891  0.29994010  0.10145941    -0.44300
C1873       C  0.68007231  0.22687054  0.13882020    -0.00700
C1874       C  0.67836754  0.23392857  0.16685708    -0.12600
C1875       C  0.67095238  0.26046106  0.17525930     0.01600
C1876       C  0.66401321  0.28079101  0.15533136    -0.00800
C1877       C  0.66784656  0.27441569  0.12725063    -0.12500
C1878       C  0.67600130  0.24795031  0.11888019     0.01400
H1879       H  0.68161752  0.21827394  0.18254950     0.14400
H1880       H  0.66351256  0.28986212  0.11160443     0.14400
C1881       C  0.67923910  0.24302911  0.08964656     0.36100
C1882       C  0.66954258  0.26542239  0.20462057     0.36000
N1883       N  0.68186918  0.23913919  0.06621653    -0.44300
N1884       N  0.66831018  0.26892275  0.22821773    -0.44300
C1885       C  0.59689787  0.31739421  0.27531208    -0.00700
C1886       C  0.58898440  0.29070832  0.26793158    -0.12600
C1887       C  0.58494617  0.27017433  0.28791474     0.01600
C1888       C  0.58973951  0.27583994  0.31604760    -0.00800
C1889       C  0.59589918  0.30327549  0.32342111    -0.12500
C1890       C  0.59935971  0.32395742  0.30337568     0.01400
H1891       H  0.58655498  0.28570643  0.24625268     0.14400
H1892       H  0.59921453  0.30844634  0.34490831     0.14400
C1893       C  0.60739698  0.35114895  0.31188621     0.36100
C1894       C  0.57682719  0.24345346  0.27855784     0.36000
N1895       N  0.61389003  0.37297418  0.31858026    -0.44300
N1896       N  0.57002016  0.22224804  0.27053098    -0.44300
C1897       C  0.67722698  0.38510223  0.27211063    -0.00700
C1898       C  0.67796924  0.40836942  0.28946586    -0.12600
C1899       C  0.69895734  0.41174542  0.30940540     0.01600
C1900       C  0.71951309  0.39131727  0.31277683    -0.00800
C1901       C  0.71761169  0.36750173  0.29648990    -0.12500
C1902       C  0.69716886  0.36427505  0.27651525     0.01400
H1903       H  0.66308927  0.42472852  0.28638990     0.14400
H1904       H  0.73289245  0.35138262  0.29872098     0.14400
C1905       C  0.69779385  0.33936628  0.26039381     0.36100
C1906       C  0.70010767  0.43721891  0.32446433     0.36000
N1907       N  0.69863293  0.31947168  0.24740374    -0.44300
N1908       N  0.70107454  0.45776957  0.33637408    -0.44300
C1909       C  0.02736123  0.29981632  0.13005382    -0.00700
C1910       C  0.01206273  0.27646846  0.13661157    -0.12600
C1911       C  0.98368557  0.27535596  0.13196199     0.01600
C1912       C  0.96888603  0.29881294  0.12203387    -0.00800
C1913       C  0.98417199  0.32267655  0.11619143    -0.12500
C1914       C  0.01313520  0.32301892  0.11918050     0.01400
H1915       H  0.02264196  0.25832150  0.14436284     0.14400
H1916       H  0.97362881  0.34082341  0.10848414     0.14400
C1917       C  0.02771103  0.34741273  0.11082981     0.36100
C1918       C  0.97085052  0.24920098  0.13737591     0.36000
N1919       N  0.03921334  0.36700188  0.10381428    -0.44300
N1920       N  0.96144520  0.22776000  0.14144042    -0.44300
C1921       C  0.21943228  0.18373121  0.09808240    -0.00700
C1922       C  0.22710923  0.21137214  0.10020020    -0.12600
C1923       C  0.20744989  0.23213555  0.10427363     0.01600
C1924       C  0.17921214  0.22556441  0.10628231    -0.00800
C1925       C  0.17126052  0.19829360  0.10201446    -0.12500
C1926       C  0.19100446  0.17743527  0.09796461     0.01400
H1927       H  0.24864791  0.21671649  0.09985979     0.14400
H1928       H  0.14969105  0.19310600  0.10281027     0.14400
C1929       C  0.18142599  0.14977061  0.09353897     0.36100
C1930       C  0.21689767  0.26018573  0.10613316     0.36000
N1931       N  0.17370669  0.12763140  0.08985133    -0.44300
N1932       N  0.22442557  0.28266595  0.10748220    -0.44300
C1933       C  0.96594589  0.13495955  0.31194207    -0.00700
C1934       C  0.98072732  0.11004309  0.31234837    -0.12600
C1935       C  0.00948923  0.10938117  0.30998935     0.01600
C1936       C  0.02450249  0.13416105  0.30679248    -0.00800
C1937       C  0.00984148  0.15912402  0.30797569    -0.12500
C1938       C  0.98113143  0.15980708  0.31070901     0.01400
H1939       H  0.96970922  0.09076705  0.31358673     0.14400
H1940       H  0.02082999  0.17839346  0.30635489     0.14400
C1941       C  0.96802896  0.18651673  0.31151052     0.36100
C1942       C  0.02267156  0.08271979  0.30998543     0.36000
N1943       N  0.95764799  0.20797108  0.31216976    -0.44300
N1944       N  0.03309204  0.06127475  0.31006619    -0.44300
C1945       C  0.09837323  0.22095707  0.17858109    -0.00700
C1946       C  0.10269610  0.19291511  0.17236671    -0.12600
C1947       C  0.10147057  0.17232158  0.19339879     0.01600
C1948       C  0.09649428  0.17972231  0.22128552    -0.00800
C1949       C  0.09015448  0.20735976  0.22677545    -0.12500
C1950       C  0.09077348  0.22762542  0.20605552     0.01400
H1951       H  0.10854500  0.18724480  0.15153264     0.14400
H1952       H  0.08584926  0.21346899  0.24789012     0.14400
C1953       C  0.08470302  0.25563366  0.21404307     0.36100
C1954       C  0.10678245  0.14409243  0.18610743     0.36000
N1955       N  0.07987946  0.27800145  0.22062644    -0.44300
N1956       N  0.11079465  0.12142792  0.18004171    -0.44300
C1957       C  0.20600390  0.10413367  0.17698192    -0.00700
C1958       C  0.19779234  0.13108434  0.18331423    -0.12600
C1959       C  0.17822746  0.13617357  0.20386046     0.01600
C1960       C  0.16566250  0.11392201  0.21767731    -0.00800
C1961       C  0.17237249  0.08692686  0.20984055    -0.12500
C1962       C  0.19306501  0.08186423  0.19034840     0.01400
H1963       H  0.20818201  0.14827882  0.17356442     0.14400
H1964       H  0.16351568  0.06974082  0.22104853     0.14400
C1965       C  0.20323394  0.05407478  0.18767635     0.36100
C1966       C  0.17259425  0.16435696  0.21141798     0.36000
N1967       N  0.21146995  0.03174167  0.18653082    -0.44300
N1968       N  0.16831625  0.18696798  0.21752157    -0.44300
C1969       C  0.46846593  0.20111096  0.36973643    -0.00700
C1970       C  0.48247019  0.22595650  0.36736777    -0.12600
C1971       C  0.51075437  0.22778091  0.37200113     0.01600
C1972       C  0.52643942  0.20391758  0.37888995    -0.00800
C1973       C  0.51236156  0.17878893  0.38130351    -0.12500
C1974       C  0.48361619  0.17737197  0.37754486     0.01400
H1975       H  0.47089953  0.24437283  0.36272430     0.14400
H1976       H  0.52372149  0.16030033  0.38666003     0.14400
C1977       C  0.47028398  0.15140193  0.38228263     0.36100
C1978       C  0.52282883  0.25470899  0.36897248     0.36000
N1979       N  0.46006242  0.13039369  0.38658675    -0.44300
N1980       N  0.53220214  0.27641469  0.36662943    -0.44300
C1981       C  0.27590548  0.15742189  0.34424989    -0.00700
C1982       C  0.26058767  0.17724707  0.32949610    -0.12600
C1983       C  0.23205183  0.17543510  0.32720562     0.01600
C1984       C  0.21798425  0.15359134  0.34012818    -0.00800
C1985       C  0.23306497  0.13381902  0.35498303    -0.12500
C1986       C  0.26172541  0.13530785  0.35687447     0.01400
H1987       H  0.27092883  0.19449034  0.31982594     0.14400
H1988       H  0.22249833  0.11653505  0.36435389     0.14400
C1989       C  0.27576175  0.11379681  0.37193807     0.36100
C1990       C  0.21763647  0.19661970  0.31195018     0.36000
N1991       N  0.28679191  0.09626931  0.38382678    -0.44300
N1992       N  0.20615115  0.21362999  0.29973670    -0.44300
C1993       C  0.34568958  0.15779176  0.27376941    -0.00700
C1994       C  0.34960174  0.13035034  0.26539978    -0.12600
C1995       C  0.34432717  0.12222088  0.23825291     0.01600
C1996       C  0.33460453  0.14155860  0.21887329    -0.00800
C1997       C  0.33009158  0.16875106  0.22702606    -0.12500
C1998       C  0.33609733  0.17723652  0.25394290     0.01400
H1999       H  0.35718222  0.11512828  0.27997526     0.14400
H2000       H  0.32181523  0.18342592  0.21226517     0.14400
C2001       C  0.33247217  0.20606978  0.26009545     0.36100
C2002       C  0.34854411  0.09375834  0.23090016     0.36000
N2003       N  0.32981453  0.22929482  0.26458194    -0.44300
N2004       N  0.35189515  0.07090139  0.22519289    -0.44300
C2005       C  0.52410480  0.36109081  0.20267248    -0.00700
C2006       C  0.50985029  0.38607747  0.19815981    -0.12600
C2007       C  0.48102377  0.38768207  0.19905767     0.01600
C2008       C  0.46528769  0.36363823  0.20336575    -0.00800
C2009       C  0.47954798  0.33867545  0.20768069    -0.12500
C2010       C  0.50830910  0.33730404  0.20814721     0.01400
H2011       H  0.52127418  0.40483893  0.19465065     0.14400
H2012       H  0.46818278  0.31998260  0.21174920     0.14400
C2013       C  0.52059649  0.31150794  0.21646691     0.36100
C2014       C  0.46849658  0.41457062  0.19681462     0.36000
N2015       N  0.53003949  0.29083863  0.22376926    -0.44300
N2016       N  0.45864301  0.43623915  0.19540112    -0.44300
C2017       C  0.33623047  0.27329724  0.16279217    -0.00700
C2018       C  0.35212416  0.25180260  0.17387285    -0.12600
C2019       C  0.34600755  0.22411013  0.16885308     0.01600
C2020       C  0.32233590  0.21690468  0.15364217    -0.00800
C2021       C  0.30580522  0.23859226  0.14322267    -0.12500
C2022       C  0.31292842  0.26651037  0.14710386     0.01400
H2023       H  0.37028690  0.25673818  0.18569254     0.14400
H2024       H  0.28800450  0.23379104  0.13085848     0.14400
C2025       C  0.29634866  0.28780964  0.13457583     0.36100
C2026       C  0.36535334  0.20374233  0.17864236     0.36000
N2027       N  0.28332921  0.30501614  0.12437057    -0.44300
N2028       N  0.38112749  0.18754266  0.18621279    -0.44300
C2029       C  0.21729988  0.34204770  0.16812525    -0.00700
C2030       C  0.22710460  0.36868436  0.16294425    -0.12600
C2031       C  0.25459159  0.37535334  0.16730916     0.01600
C2032       C  0.27304384  0.35536508  0.17751488    -0.00800
C2033       C  0.26314091  0.32927570  0.18455746    -0.12500
C2034       C  0.23560951  0.32236011  0.17983850     0.01400
H2035       H  0.21355412  0.38419932  0.15425365     0.14400
H2036       H  0.27720242  0.31392154  0.19271986     0.14400
C2037       C  0.22717167  0.29471394  0.18659781     0.36100
C2038       C  0.26320517  0.40295144  0.16083959     0.36000
N2039       N  0.22058234  0.27248885  0.19197944    -0.44300
N2040       N  0.26930381  0.42532140  0.15559684    -0.44300
C2041       C  0.38547072  0.32728210  0.28562893    -0.00700
C2042       C  0.41081200  0.31989757  0.29738025    -0.12600
C2043       C  0.41262780  0.29879079  0.31758235     0.01600
C2044       C  0.38879722  0.28440307  0.32591968    -0.00800
C2045       C  0.36348429  0.29415015  0.31622889    -0.12500
C2046       C  0.36152480  0.31541643  0.29677289     0.01400
H2047       H  0.42941112  0.32898293  0.28921910     0.14400
H2048       H  0.34510814  0.28378329  0.32255155     0.14400
C2049       C  0.33458644  0.32353654  0.28733467     0.36100
C2050       C  0.43938540  0.29133908  0.32757450     0.36000
N2051       N  0.31297396  0.33001206  0.27988698    -0.44300
N2052       N  0.46134781  0.28653877  0.33513100    -0.44300
C2053       C  0.16397162  0.34937738  0.28318080    -0.00700
C2054       C  0.14522576  0.36653685  0.26962336    -0.12600
C2055       C  0.13708901  0.36125887  0.24264539     0.01600
C2056       C  0.14847425  0.33864906  0.22829496    -0.00800
C2057       C  0.16712722  0.32113357  0.24214333    -0.12500
C2058       C  0.17492320  0.32636537  0.26952061     0.01400
H2059       H  0.13680647  0.38424876  0.28029620     0.14400
H2060       H  0.17584875  0.30356420  0.23148302     0.14400
C2061       C  0.19470950  0.30862002  0.28288480     0.36100
C2062       C  0.11616291  0.37886219  0.23095473     0.36000
N2063       N  0.21062756  0.29454690  0.29371666    -0.44300
N2064       N  0.09929962  0.39317456  0.22210010    -0.44300
C2065       C  0.15267924  0.21865433  0.34717941    -0.00700
C2066       C  0.14202800  0.24189548  0.33399864    -0.12600
C2067       C  0.14816309  0.26810895  0.34326689     0.01600
C2068       C  0.16691746  0.27147745  0.36546078    -0.00800
C2069       C  0.17814393  0.24801785  0.37817371    -0.12500
C2070       C  0.17062919  0.22169121  0.36969859     0.01400
H2071       H  0.12760261  0.23950998  0.31714689     0.14400
H2072       H  0.19230416  0.25019073  0.39523218     0.14400
C2073       C  0.18154910  0.19835398  0.38459456     0.36100
C2074       C  0.13363015  0.29045758  0.32986690     0.36000
N2075       N  0.19034922  0.17992469  0.39697982    -0.44300
N2076       N  0.12110472  0.30758724  0.31891066    -0.44300
C2077       C  0.27868928  0.32222314  0.38090440    -0.00700
C2078       C  0.28018757  0.30480224  0.35806438    -0.12600
C2079       C  0.29938552  0.28340835  0.35662283     0.01600
C2080       C  0.31929641  0.27953158  0.37792999    -0.00800
C2081       C  0.31845287  0.29765494  0.40045839    -0.12500
C2082       C  0.29810325  0.31837033  0.40243698     0.01400
H2083       H  0.26542780  0.30719350  0.34148706     0.14400
H2084       H  0.33264126  0.29460239  0.41739969     0.14400
C2085       C  0.29637614  0.33379561  0.42778727     0.36100
C2086       C  0.29687568  0.26529389  0.33315351     0.36000
N2087       N  0.29474046  0.34594448  0.44823179    -0.44300
N2088       N  0.29461945  0.25098267  0.31427620    -0.44300
C2089       C  0.27734427  0.40664266  0.32149029    -0.00700
C2090       C  0.26879890  0.42077167  0.29760282    -0.12600
C2091       C  0.28533384  0.42222978  0.27389582     0.01600
C2092       C  0.31124093  0.40885564  0.27341748    -0.00800
C2093       C  0.32051541  0.39629451  0.29808945    -0.12500
C2094       C  0.30386653  0.39513156  0.32193320     0.01400
H2095       H  0.24840182  0.42977438  0.29706779     0.14400
H2096       H  0.34048153  0.38641833  0.29854108     0.14400
C2097       C  0.31390543  0.38081314  0.34602041     0.36100
C2098       C  0.27439273  0.43667721  0.25017459     0.36000
N2099       N  0.32227372  0.36949329  0.36532559    -0.44300
N2100       N  0.26559581  0.44828118  0.23120979    -0.44300
C2101       C  0.86375859  0.97442293  0.30062044    -0.00700
C2102       C  0.84274856  0.98783874  0.28579338    -0.12600
C2103       C  0.84145216  0.01671410  0.28372992     0.01600
C2104       C  0.86103694  0.03313017  0.29740001    -0.00800
C2105       C  0.88167592  0.01970855  0.31268724    -0.12500
C2106       C  0.88333555  0.99089036  0.31426802     0.01400
H2107       H  0.82775923  0.97570450  0.27482002     0.14400
H2108       H  0.89684035  0.03181753  0.32345161     0.14400
C2109       C  0.90548659  0.97898560  0.33011617     0.36100
C2110       C  0.82062321  0.02871104  0.26622713     0.36000
N2111       N  0.92337167  0.96953382  0.34268820    -0.44300
N2112       N  0.80394981  0.03827793  0.25214171    -0.44300
C2113       C  0.82689761  0.93728580  0.38138176    -0.00700
C2114       C  0.80150795  0.94907746  0.37409517    -0.12600
C2115       C  0.78348870  0.96023359  0.39381885     0.01600
C2116       C  0.79088264  0.96118620  0.42220813    -0.00800
C2117       C  0.81701782  0.95080732  0.42938750    -0.12500
C2118       C  0.83469242  0.93862183  0.40954476     0.01400
H2119       H  0.79486822  0.94829510  0.35274484     0.14400
H2120       H  0.82324919  0.95101189  0.45085660     0.14400
C2121       C  0.85969752  0.92589334  0.41913822     0.36100
C2122       C  0.75693842  0.96909055  0.38394759     0.36000
N2123       N  0.87963946  0.91552637  0.42695356    -0.44300
N2124       N  0.73565222  0.97591129  0.37586117    -0.44300
C2125       C  0.89948160  0.78252043  0.18790326    -0.00700
C2126       C  0.89559351  0.81003302  0.17926799    -0.12600
C2127       C  0.89557308  0.83186923  0.19860950     0.01600
C2128       C  0.89933158  0.82619082  0.22700960    -0.00800
C2129       C  0.90537203  0.79904112  0.23500350    -0.12500
C2130       C  0.90574808  0.77751541  0.21597546     0.01400
H2131       H  0.89113856  0.81432118  0.15774607     0.14400
H2132       H  0.90896628  0.79441317  0.25665835     0.14400
C2133       C  0.91254726  0.75031671  0.22605245     0.36100
C2134       C  0.89020751  0.85950190  0.18909424     0.36000
N2135       N  0.91821443  0.72868533  0.23437929    -0.44300
N2136       N  0.88607901  0.88167804  0.18131103    -0.44300
C2137       C  0.70997309  0.97140638  0.12950939    -0.00700
C2138       C  0.69235340  0.98391980  0.14858936    -0.12600
C2139       C  0.68908067  0.01248409  0.14936824     0.01600
C2140       C  0.70431507  0.02954402  0.13111768    -0.00800
C2141       C  0.72082314  0.01688879  0.11091756    -0.12500
C2142       C  0.72365832  0.98811875  0.10986631     0.01400
H2143       H  0.68115040  0.97124430  0.16320762     0.14400
H2144       H  0.73245021  0.02949182  0.09658792     0.14400
C2145       C  0.74191580  0.97651659  0.08942122     0.36100
C2146       C  0.66992712  0.02333955  0.16939318     0.36000
N2147       N  0.75649287  0.96722613  0.07298531    -0.44300
N2148       N  0.65454015  0.03159428  0.18562831    -0.44300
C2149       C  0.77667914  0.81532498  0.09507323    -0.00700
C2150       C  0.76958500  0.78883600  0.08628249    -0.12600
C2151       C  0.78858165  0.76719181  0.08681381     0.01600
C2152       C  0.81576761  0.77198210  0.09568916    -0.00800
C2153       C  0.82354614  0.79915035  0.10150752    -0.12500
C2154       C  0.80449454  0.82070573  0.10122591     0.01400
H2155       H  0.74862160  0.78449664  0.08043726     0.14400
H2156       H  0.84451365  0.80359944  0.10725443     0.14400
C2157       C  0.81433651  0.84790796  0.10768380     0.36100
C2158       C  0.77875470  0.74020226  0.07972354     0.36000
N2159       N  0.82232170  0.86966199  0.11280575    -0.44300
N2160       N  0.77052540  0.71864804  0.07425088    -0.44300
C2161       C  0.79040836  0.89084232  0.18091631    -0.00700
C2162       C  0.79692724  0.86590385  0.19405135    -0.12600
C2163       C  0.81699955  0.86442450  0.21449881     0.01600
C2164       C  0.83107906  0.88845606  0.22261229    -0.00800
C2165       C  0.82683870  0.91279731  0.20729171    -0.12500
C2166       C  0.80672379  0.91412156  0.18642253     0.01400
H2167       H  0.78523270  0.84762351  0.18926675     0.14400
H2168       H  0.83776738  0.93128834  0.21291574     0.14400
C2169       C  0.80182843  0.94004271  0.17261824     0.36100
C2170       C  0.82167964  0.83805118  0.22763501     0.36000
N2171       N  0.79804685  0.96083937  0.16149491    -0.44300
N2172       N  0.82518184  0.81688634  0.23813169    -0.44300
C2173       C  0.61863969  0.52716072  0.21661455    -0.00700
C2174       C  0.64092326  0.51281438  0.22830842    -0.12600
C2175       C  0.64477863  0.48430777  0.22403817     0.01600
C2176       C  0.62560155  0.46908437  0.20839640    -0.00800
C2177       C  0.60293270  0.48343297  0.19736984    -0.12500
C2178       C  0.59974192  0.51205263  0.20074228     0.01400
H2179       H  0.65636147  0.52423343  0.23943458     0.14400
H2180       H  0.58800247  0.47239398  0.18521133     0.14400
C2181       C  0.57733942  0.52574284  0.18682477     0.36100
C2182       C  0.66888342  0.47143488  0.23564672     0.36000
N2183       N  0.55949988  0.53675311  0.17552190    -0.44300
N2184       N  0.68835748  0.46124165  0.24477738    -0.44300
C2185       C  0.65153820  0.72551050  0.17205373    -0.00700
C2186       C  0.67757959  0.72976822  0.15974887    -0.12600
C2187       C  0.68731111  0.75604711  0.15335808     0.01600
C2188       C  0.67060893  0.77919016  0.15842539    -0.00800
C2189       C  0.64534722  0.77514650  0.17225940    -0.12500
C2190       C  0.63591703  0.74870698  0.17927677     0.01400
H2191       H  0.69051367  0.71232300  0.15449067     0.14400
H2192       H  0.63249646  0.79272843  0.17712473     0.14400
C2193       C  0.61068672  0.74600107  0.19450991     0.36100
C2194       C  0.71419668  0.75819577  0.14107688     0.36000
N2195       N  0.59055783  0.74384181  0.20697829    -0.44300
N2196       N  0.73594877  0.75934711  0.13162422    -0.44300
C2197       C  0.73251749  0.64034550  0.18316320    -0.00700
C2198       C  0.73877922  0.66878250  0.18528608    -0.12600
C2199       C  0.76315538  0.67964101  0.17427705     0.01600
C2200       C  0.78184410  0.66183207  0.16119510    -0.00800
C2201       C  0.77614591  0.63344333  0.16060433    -0.12500
C2202       C  0.75211254  0.62265475  0.17139653     0.01400
H2203       H  0.72410383  0.68285684  0.19451068     0.14400
H2204       H  0.79028711  0.61924026  0.15073752     0.14400
C2205       C  0.74757925  0.59355367  0.16803540     0.36100
C2206       C  0.76870326  0.70864333  0.17719556     0.36000
N2207       N  0.74396061  0.57027668  0.16494406    -0.44300
N2208       N  0.77327117  0.73183558  0.17972756    -0.44300
C2209       C  0.73227536  0.83275407  0.36943932    -0.00700
C2210       C  0.73790408  0.83849065  0.34148274    -0.12600
C2211       C  0.76427433  0.84444247  0.33229580     0.01600
C2212       C  0.78628575  0.84448865  0.35122330    -0.00800
C2213       C  0.78102242  0.83760410  0.37902494    -0.12500
C2214       C  0.75435334  0.83166068  0.38824775     0.01400
H2215       H  0.72145545  0.83896396  0.32646898     0.14400
H2216       H  0.79771404  0.83742230  0.39375825     0.14400
C2217       C  0.75030841  0.82525420  0.41711167     0.36100
C2218       C  0.76742045  0.85223768  0.30359880     0.36000
N2219       N  0.74706602  0.82005134  0.44024236    -0.44300
N2220       N  0.76986358  0.85870509  0.28068860    -0.44300
C2221       C  0.66663538  0.83573657  0.21905598    -0.00700
C2222       C  0.63900129  0.83136805  0.22567048    -0.12600
C2223       C  0.63117044  0.82350412  0.25235512     0.01600
C2224       C  0.65130566  0.81983869  0.27298047    -0.00800
C2225       C  0.67896592  0.82205222  0.26594696    -0.12500
C2226       C  0.68689206  0.82952782  0.23924778     0.01400
H2227       H  0.62326491  0.83569682  0.21045864     0.14400
H2228       H  0.69443033  0.81914708  0.28178287     0.14400
C2229       C  0.71596315  0.83157891  0.23392065     0.36100
C2230       C  0.60222569  0.82211850  0.25838403     0.36000
N2231       N  0.73928451  0.83310580  0.22985384    -0.44300
N2232       N  0.57887740  0.82123665  0.26248838    -0.44300
C2233       C  0.65512604  0.88718395  0.42364804    -0.00700
C2234       C  0.67480650  0.88052352  0.44354016    -0.12600
C2235       C  0.68983035  0.90088401  0.45663763     0.01600
C2236       C  0.68347260  0.92903552  0.45203978    -0.00800
C2237       C  0.66216997  0.93576823  0.43361919    -0.12500
C2238       C  0.64868723  0.91517616  0.41866800     0.01400
H2239       H  0.68066671  0.85916232  0.44673224     0.14400
H2240       H  0.65743623  0.95718762  0.42932168     0.14400
C2241       C  0.62939953  0.92339230  0.39755844     0.36100
C2242       C  0.71323125  0.89179876  0.47250416     0.36000
N2243       N  0.61413666  0.93025362  0.38058156    -0.44300
N2244       N  0.73215003  0.88420366  0.48478198    -0.44300
C2245       C  0.59759350  0.73611662  0.30676996    -0.00700
C2246       C  0.62213488  0.72133392  0.30303253    -0.12600
C2247       C  0.62579145  0.70251633  0.28136196     0.01600
C2248       C  0.60394423  0.69635172  0.26295479    -0.00800
C2249       C  0.57958758  0.71198335  0.26593189    -0.12500
C2250       C  0.57657503  0.73212120  0.28702904     0.01400
H2251       H  0.63910048  0.72494517  0.31697454     0.14400
H2252       H  0.56273534  0.70836893  0.25191240     0.14400
C2253       C  0.55161679  0.74807857  0.28814368     0.36100
C2254       C  0.65284900  0.69059870  0.27836141     0.36000
N2255       N  0.53168603  0.76106886  0.28887094    -0.44300
N2256       N  0.67461984  0.68132717  0.27595714    -0.44300
C2257       C  0.81107361  0.53152060  0.37513276    -0.00700
C2258       C  0.80238234  0.51649457  0.39819274    -0.12600
C2259       C  0.79758828  0.48820912  0.39641692     0.01600
C2260       C  0.80052288  0.47447052  0.37062252    -0.00800
C2261       C  0.81025952  0.48949621  0.34787402    -0.12500
C2262       C  0.81613518  0.51751514  0.35006913     0.01400
H2263       H  0.79852655  0.52708994  0.41750996     0.14400
H2264       H  0.81288370  0.47946652  0.32808333     0.14400
C2265       C  0.82565823  0.53171378  0.32568889     0.36100
C2266       C  0.78871362  0.47444056  0.42138155     0.36000
N2267       N  0.83346714  0.54334372  0.30635953    -0.44300
N2268       N  0.78172228  0.46349564  0.44146476    -0.44300
C2269       C  0.82616431  0.65731167  0.28018841    -0.00700
C2270       C  0.85369173  0.66103075  0.27285744    -0.12600
C2271       C  0.86175442  0.66256554  0.24527530     0.01600
C2272       C  0.84206314  0.66147451  0.22407938    -0.00800
C2273       C  0.81427615  0.65903532  0.23122114    -0.12500
C2274       C  0.80618489  0.65659980  0.25905679     0.01400
H2275       H  0.86939509  0.66084850  0.28867762     0.14400
H2276       H  0.79892448  0.65920600  0.21520198     0.14400
C2277       C  0.77737596  0.65387707  0.26539034     0.36100
C2278       C  0.89070856  0.66416311  0.23937614     0.36000
N2279       N  0.75427338  0.65185222  0.27042249    -0.44300
N2280       N  0.91404002  0.66508106  0.23522456    -0.44300
C2281       C  0.84573601  0.72692507  0.35665699    -0.00700
C2282       C  0.86498478  0.74013457  0.37324437    -0.12600
C2283       C  0.86967400  0.76834879  0.37038805     0.01600
C2284       C  0.85554080  0.78362831  0.34995190    -0.00800
C2285       C  0.83648903  0.77013780  0.33312296    -0.12500
C2286       C  0.83127362  0.74212485  0.33648643     0.01400
H2287       H  0.87558905  0.72858766  0.38925456     0.14400
H2288       H  0.82560438  0.78155141  0.31722308     0.14400
C2289       C  0.81122989  0.72940501  0.31878253     0.36100
C2290       C  0.88908093  0.78073276  0.38878757     0.36000
N2291       N  0.79511087  0.71920882  0.30471364    -0.44300
N2292       N  0.90442716  0.79010370  0.40418125    -0.44300
C2293       C  0.73724737  0.59387177  0.31146176    -0.00700
C2294       C  0.71032648  0.60322389  0.31621461    -0.12600
C2295       C  0.69035255  0.60328124  0.29525635     0.01600
C2296       C  0.69657759  0.59352387  0.26831007    -0.00800
C2297       C  0.72300457  0.58301300  0.26366810    -0.12500
C2298       C  0.74323125  0.58329300  0.28460125     0.01400
H2299       H  0.70485833  0.61128071  0.33635108     0.14400
H2300       H  0.72834477  0.57581519  0.24316079     0.14400
C2301       C  0.77020134  0.57379852  0.27694973     0.36100
C2302       C  0.66341502  0.61366977  0.30217888     0.36000
N2303       N  0.79161178  0.56623246  0.26994351    -0.44300
N2304       N  0.64188820  0.62207829  0.30779433    -0.44300
C2305       C  0.72037605  0.68068758  0.38558230    -0.00700
C2306       C  0.71949506  0.69824421  0.36230945    -0.12600
C2307       C  0.70228180  0.72113911  0.36157619     0.01600
C2308       C  0.68466539  0.72614741  0.38395701    -0.00800
C2309       C  0.68349059  0.70706329  0.40598621    -0.12500
C2310       C  0.70126383  0.68442664  0.40701999     0.01400
H2311       H  0.73379586  0.69516229  0.34537335     0.14400
H2312       H  0.66950555  0.71050919  0.42310054     0.14400
C2313       C  0.70070147  0.66666087  0.43100693     0.36100
C2314       C  0.70347502  0.73934556  0.33792325     0.36000
N2315       N  0.70014004  0.65238034  0.45019685    -0.44300
N2316       N  0.70441146  0.75410385  0.31911738    -0.44300
C2317       C  0.28037204  0.96418886  0.10374355    -0.00700
C2318       C  0.25523302  0.97658632  0.11069673    -0.12600
C2319       C  0.25329065  0.00511205  0.11544830     0.01600
C2320       C  0.27685458  0.02184100  0.11366057    -0.00800
C2321       C  0.30141855  0.00989079  0.10450586    -0.12500
C2322       C  0.30342931  0.98145745  0.09963726     0.01400
H2323       H  0.23727822  0.96384059  0.11359660     0.14400
H2324       H  0.31935307  0.02273085  0.10187529     0.14400
C2325       C  0.32954774  0.97061917  0.09053871     0.36100
C2326       C  0.22672228  0.01673477  0.12148192     0.36000
N2327       N  0.35045575  0.96198238  0.08315674    -0.44300
N2328       N  0.20512405  0.02571980  0.12571717    -0.44300
C2329       C  0.14461853  0.97630895  0.29567497    -0.00700
C2330       C  0.12531361  0.98855534  0.31349385    -0.12600
C2331       C  0.12216539  0.01716728  0.31465357     0.01600
C2332       C  0.13823579  0.03405628  0.29733009    -0.00800
C2333       C  0.15880017  0.02183527  0.28097264    -0.12500
C2334       C  0.16215580  0.99331365  0.28002216     0.01400
H2335       H  0.11226504  0.97565898  0.32622707     0.14400
H2336       H  0.17171851  0.03453804  0.26791283     0.14400
C2337       C  0.18256914  0.98228191  0.26141387     0.36100
C2338       C  0.10271172  0.02853684  0.33408015     0.36000
N2339       N  0.19904876  0.97377966  0.24644215    -0.44300
N2340       N  0.08728222  0.03765702  0.34980846    -0.44300
C2341       C  0.03440445  0.87602145  0.29271996    -0.00700
C2342       C  0.02009340  0.85298450  0.28304441    -0.12600
C2343       C  0.99133319  0.85177146  0.28364212     0.01600
C2344       C  0.97568026  0.87342239  0.29558114    -0.00800
C2345       C  0.98994821  0.89674837  0.30482188    -0.12500
C2346       C  0.01877523  0.89844921  0.30304289     0.01400
H2347       H  0.03143364  0.83591317  0.27416657     0.14400
H2348       H  0.97853951  0.91395606  0.31331662     0.14400
C2349       C  0.03156248  0.92362237  0.31181585     0.36100
C2350       C  0.97873156  0.82840316  0.27056597     0.36000
N2351       N  0.04172251  0.94395550  0.31856345    -0.44300
N2352       N  0.96885710  0.80961605  0.25999718    -0.44300
C2353       C  0.18774188  0.90142556  0.21869729    -0.00700
C2354       C  0.18158410  0.89734018  0.19074471    -0.12600
C2355       C  0.20269169  0.89624632  0.17080282     0.01600
C2356       C  0.23043407  0.89877775  0.17894387    -0.00800
C2357       C  0.23617224  0.90474461  0.20659663    -0.12500
C2358       C  0.21530134  0.90616041  0.22631348     0.01400
H2359       H  0.16052014  0.89394041  0.18465498     0.14400
H2360       H  0.25724256  0.90739012  0.21311733     0.14400
C2361       C  0.22293099  0.91185938  0.25454896     0.36100
C2362       C  0.19530446  0.89358305  0.14212685     0.36000
N2363       N  0.22919609  0.91640180  0.27710192    -0.44300
N2364       N  0.18928402  0.89203136  0.11909282    -0.44300
C2365       C  0.02994925  0.71020739  0.13701788    -0.00700
C2366       C  0.01629321  0.70372240  0.11228584    -0.12600
C2367       C  0.98751659  0.70281187  0.11097851     0.01600
C2368       C  0.97166530  0.70850215  0.13484541    -0.00800
C2369       C  0.98538910  0.71439852  0.15956257    -0.12500
C2370       C  0.01391394  0.71544280  0.16090460     0.01400
H2371       H  0.02810822  0.69936758  0.09379400     0.14400
H2372       H  0.97374803  0.71905941  0.17810112     0.14400
C2373       C  0.02568220  0.72300715  0.18712458     0.36100
C2374       C  0.97504836  0.69553586  0.08502070     0.36000
N2375       N  0.03487367  0.72914293  0.20820815    -0.44300
N2376       N  0.96519359  0.68961308  0.06417845    -0.44300
C2377       C  0.18658948  0.77048824  0.09557107    -0.00700
C2378       C  0.21345317  0.76399523  0.08715811    -0.12600
C2379       C  0.23406129  0.78412993  0.08625468     0.01600
C2380       C  0.22831854  0.81168433  0.09388623    -0.00800
C2381       C  0.20117900  0.81878619  0.10002811    -0.12500
C2382       C  0.18038713  0.79876445  0.10079049     0.01400
H2383       H  0.21877918  0.74288026  0.08229578     0.14400
H2384       H  0.19646504  0.83971973  0.10593317     0.14400
C2385       C  0.15313741  0.80812930  0.10790002     0.36100
C2386       C  0.26133582  0.77583166  0.07800170     0.36000
N2387       N  0.13134708  0.81578803  0.11356762    -0.44300
N2388       N  0.28313927  0.76918451  0.07123235    -0.44300
C2389       C  0.12026493  0.82967871  0.21962961    -0.00700
C2390       C  0.09676171  0.82744877  0.20304967    -0.12600
C2391       C  0.09464386  0.80643069  0.18325762     0.01600
C2392       C  0.11619562  0.78709366  0.18032266    -0.00800
C2393       C  0.14076486  0.79155651  0.19458683    -0.12500
C2394       C  0.14306476  0.81268154  0.21381968     0.01400
H2395       H  0.07934598  0.84087715  0.20682237     0.14400
H2396       H  0.15800916  0.77770329  0.19152712     0.14400
C2397       C  0.16901551  0.81616305  0.22758338     0.36100
C2398       C  0.06959518  0.80418640  0.16770354     0.36000
N2399       N  0.18995736  0.81898880  0.23829865    -0.44300
N2400       N  0.04955509  0.80261590  0.15510914    -0.44300
C2401       C  0.47428109  0.80475831  0.36018914    -0.00700
C2402       C  0.48937995  0.78115023  0.35417770    -0.12600
C2403       C  0.51665377  0.77902444  0.36189985     0.01600
C2404       C  0.52982937  0.80182946  0.37417371    -0.00800
C2405       C  0.51487643  0.82590567  0.37936472    -0.12500
C2406       C  0.48691855  0.82717838  0.37336736     0.01400
H2407       H  0.47925696  0.76350148  0.34517033     0.14400
H2408       H  0.52488585  0.84341186  0.38869197     0.14400
C2409       C  0.47174827  0.85137693  0.38150446     0.36100
C2410       C  0.53000261  0.75279094  0.35746893     0.36000
N2411       N  0.46011561  0.87093891  0.38854077    -0.44300
N2412       N  0.54012597  0.73146452  0.35418883    -0.44300
C2413       C  0.31829024  0.86084194  0.22822661    -0.00700
C2414       C  0.32775134  0.88173058  0.24562729    -0.12600
C2415       C  0.33602680  0.87570613  0.27259212     0.01600
C2416       C  0.33536255  0.84815108  0.28210649    -0.00800
C2417       C  0.32206738  0.82831494  0.26612537    -0.12500
C2418       C  0.31313048  0.83455978  0.23951030     0.01400
H2419       H  0.33078082  0.90234761  0.23756348     0.14400
H2420       H  0.31976789  0.80749815  0.27391928     0.14400
C2421       C  0.29926545  0.81348083  0.22412701     0.36100
C2422       C  0.34679220  0.89785951  0.28904754     0.36000
N2423       N  0.28776976  0.79667514  0.21202881    -0.44300
N2424       N  0.35523412  0.91562946  0.30231481    -0.44300
C2425       C  0.27457954  0.82813226  0.36127648    -0.00700
C2426       C  0.27114737  0.83461643  0.33323882    -0.12600
C2427       C  0.24533267  0.84059446  0.32236127     0.01600
C2428       C  0.22211084  0.84105211  0.33998453    -0.00800
C2429       C  0.22528390  0.83281061  0.36765880    -0.12500
C2430       C  0.25107800  0.82596682  0.37832010     0.01400
H2431       H  0.28881439  0.83521207  0.31963336     0.14400
H2432       H  0.20758620  0.83221953  0.38125537     0.14400
C2433       C  0.25257567  0.81748486  0.40690544     0.36100
C2434       C  0.24382930  0.84651475  0.29314197     0.36000
N2435       N  0.25341244  0.81040548  0.42974781    -0.44300
N2436       N  0.24305012  0.85080031  0.26962401    -0.44300
C2437       C  0.39198773  0.52462670  0.21759349    -0.00700
C2438       C  0.39624848  0.50871557  0.19371007    -0.12600
C2439       C  0.39660603  0.47989636  0.19477493     0.01600
C2440       C  0.39300430  0.46601462  0.22021641    -0.00800
C2441       C  0.39099246  0.48169210  0.24443681    -0.12500
C2442       C  0.39028682  0.51066889  0.24339512     0.01400
H2443       H  0.39823257  0.51876650  0.17376126     0.14400
H2444       H  0.38811935  0.47128185  0.26409275     0.14400
C2445       C  0.38602851  0.52519306  0.26900519     0.36100
C2446       C  0.40040730  0.46505659  0.16925731     0.36000
N2447       N  0.38255959  0.53675204  0.28957740    -0.44300
N2448       N  0.40359949  0.45326775  0.14877879    -0.44300
C2449       C  0.47438552  0.60298375  0.22085512    -0.00700
C2450       C  0.48867190  0.61391969  0.24363146    -0.12600
C2451       C  0.51781479  0.61615259  0.24371636     0.01600
C2452       C  0.53370852  0.60744391  0.22063838    -0.00800
C2453       C  0.51943329  0.59509258  0.19876194    -0.12500
C2454       C  0.49062583  0.59258044  0.19874032     0.01400
H2455       H  0.47701148  0.62235550  0.26073124     0.14400
H2456       H  0.53086340  0.58801134  0.18089476     0.14400
C2457       C  0.47825465  0.57975376  0.17501958     0.36100
C2458       C  0.53062220  0.62943167  0.26686651     0.36000
N2459       N  0.46835423  0.56956780  0.15596681    -0.44300
N2460       N  0.54085935  0.64012603  0.28544628    -0.44300
C2461       C  0.35836721  0.71517824  0.18391341    -0.00700
C2462       C  0.37900528  0.73462164  0.17954250    -0.12600
C2463       C  0.37246759  0.76191036  0.17363191     0.01600
C2464       C  0.34467582  0.76953455  0.16916164    -0.00800
C2465       C  0.32416467  0.75106818  0.17737996    -0.12500
C2466       C  0.33114966  0.72465495  0.18685182     0.01400
H2467       H  0.40039381  0.72844385  0.17983839     0.14400
H2468       H  0.30282058  0.75724644  0.17669784     0.14400
C2469       C  0.31085712  0.70882041  0.20157145     0.36100
C2470       C  0.39491878  0.78114079  0.17220604     0.36000
N2471       N  0.29470125  0.69663191  0.21409658    -0.44300
N2472       N  0.41292241  0.79652681  0.17154662    -0.44300
C2473       C  0.27709972  0.64490085  0.17330749    -0.00700
C2474       C  0.25548517  0.62664984  0.17821901    -0.12600
C2475       C  0.22867378  0.63281533  0.16965033     0.01600
C2476       C  0.22190056  0.65946005  0.15926081    -0.00800
C2477       C  0.24350380  0.67779174  0.15443732    -0.12500
C2478       C  0.27086932  0.67000323  0.15932945     0.01400
H2479       H  0.25987988  0.60647989  0.18686124     0.14400
H2480       H  0.23931124  0.69727854  0.14423992     0.14400
C2481       C  0.29169052  0.68600700  0.14550539     0.36100
C2482       C  0.20963108  0.61019364  0.16908562     0.36000
N2483       N  0.30792141  0.69858484  0.13347690    -0.44300
N2484       N  0.19451891  0.59195040  0.16843713    -0.44300
C2485       C  0.40819371  0.68441853  0.26913209    -0.00700
C2486       C  0.42228600  0.70924863  0.26524748    -0.12600
C2487       C  0.42210161  0.72964691  0.28592810     0.01600
C2488       C  0.40769168  0.72540779  0.31104953    -0.00800
C2489       C  0.39557868  0.69990172  0.31583074    -0.12500
C2490       C  0.39588297  0.67945818  0.29546543     0.01400
H2491       H  0.43222202  0.71333766  0.24560369     0.14400
H2492       H  0.38459731  0.69641391  0.33504826     0.14400
C2493       C  0.38270314  0.65372386  0.30222230     0.36100
C2494       C  0.43639671  0.75506736  0.28072750     0.36000
N2495       N  0.37205193  0.63319136  0.30770421    -0.44300
N2496       N  0.44812062  0.77530516  0.27659125    -0.44300
C2497       C  0.19816531  0.53565104  0.38392859    -0.00700
C2498       C  0.20476274  0.52191351  0.40859703    -0.12600
C2499       C  0.20773682  0.49312938  0.40922605     0.01600
C2500       C  0.20504070  0.47790849  0.38451781    -0.00800
C2501       C  0.19785234  0.49193964  0.36013114    -0.12500
C2502       C  0.19406901  0.52028808  0.35965914     0.01400
H2503       H  0.20813696  0.53373424  0.42721100     0.14400
H2504       H  0.19524677  0.48072277  0.34100551     0.14400
C2505       C  0.18785534  0.53305174  0.33332895     0.36100
C2506       C  0.21463478  0.48012421  0.43514845     0.36000
N2507       N  0.18300225  0.54290406  0.31207299    -0.44300
N2508       N  0.22009464  0.46978024  0.45601202    -0.44300
C2509       C  0.14910001  0.72010378  0.34146865    -0.00700
C2510       C  0.16789639  0.73751403  0.32797755    -0.12600
C2511       C  0.16069460  0.76415714  0.31985760     0.01600
C2512       C  0.13390492  0.77391858  0.32448576    -0.00800
C2513       C  0.11434379  0.75593069  0.33587269    -0.12500
C2514       C  0.12176888  0.72934657  0.34480103     0.01400
H2515       H  0.18878625  0.73064010  0.32441503     0.14400
H2516       H  0.09361762  0.76329209  0.33944733     0.14400
C2517       C  0.10139780  0.71291792  0.35876967     0.36100
C2518       C  0.18129950  0.78083686  0.30661717     0.36000
N2519       N  0.08501475  0.69987539  0.37004924    -0.44300
N2520       N  0.19816147  0.79371619  0.29593169    -0.44300
C2521       C  0.15987000  0.66314455  0.22383341    -0.00700
C2522       C  0.17933691  0.64254140  0.22794087    -0.12600
C2523       C  0.18983203  0.63710792  0.25412556     0.01600
C2524       C  0.17961864  0.65195297  0.27710179    -0.00800
C2525       C  0.16110403  0.67365180  0.27277389    -0.12500
C2526       C  0.15128873  0.67951055  0.24641673     0.01400
H2527       H  0.18568396  0.63006993  0.21081345     0.14400
H2528       H  0.15318312  0.68518336  0.29021157     0.14400
C2529       C  0.13092837  0.70109622  0.24364441     0.36100
C2530       C  0.20817606  0.61383340  0.25684260     0.36000
N2531       N  0.11451129  0.71824718  0.24150316    -0.44300
N2532       N  0.22246203  0.59484593  0.25866619    -0.44300
C2533       C  0.26752445  0.59654873  0.30818033    -0.00700
C2534       C  0.27552715  0.57129380  0.29631010    -0.12600
C2535       C  0.29377685  0.57040006  0.27348431     0.01600
C2536       C  0.30453186  0.59508497  0.26238684    -0.00800
C2537       C  0.29463815  0.62015340  0.27300251    -0.12500
C2538       C  0.27619052  0.62106156  0.29516946     0.01400
H2539       H  0.26795847  0.55227103  0.30517862     0.14400
H2540       H  0.30154976  0.63938775  0.26397583     0.14400
C2541       C  0.26491484  0.64746425  0.30281335     0.36100
C2542       C  0.30172344  0.54403259  0.26243723     0.36000
N2543       N  0.25532576  0.66855879  0.30827740    -0.44300
N2544       N  0.30795061  0.52290027  0.25339618    -0.44300
C2545       C  0.28474621  0.68791802  0.37631446    -0.00700
C2546       C  0.28496695  0.70758999  0.35498609    -0.12600
C2547       C  0.30640750  0.72617779  0.35194633     0.01600
C2548       C  0.32798835  0.72644295  0.37143636    -0.00800
C2549       C  0.32926409  0.70520412  0.39122295    -0.12500
C2550       C  0.30806443  0.68578594  0.39359313     0.01400
H2551       H  0.26774052  0.70925009  0.34100998     0.14400
H2552       H  0.34595851  0.70470243  0.40594383     0.14400
C2553       C  0.31020196  0.66504141  0.41490395     0.36100
C2554       C  0.30499270  0.74536464  0.32904076     0.36000
N2555       N  0.31206712  0.64832726  0.43190927    -0.44300
N2556       N  0.30378561  0.76075458  0.31076038    -0.44300
C2557       C  0.30463827  0.86725129  0.97313030    -0.00700
C2558       C  0.30179846  0.89154504  0.98843515    -0.12600
C2559       C  0.30410735  0.89138911  0.01737814     0.01600
C2560       C  0.30910348  0.86635108  0.03177240    -0.00800
C2561       C  0.31430360  0.84262387  0.01620226    -0.12500
C2562       C  0.31238932  0.84281843  0.98738579     0.01400
H2563       H  0.29665379  0.91061478  0.97789620     0.14400
H2564       H  0.31923295  0.82343338  0.02664796     0.14400
C2565       C  0.31863827  0.81735330  0.97340897     0.36100
C2566       C  0.30013700  0.91720444  0.03137159     0.36000
N2567       N  0.32397860  0.79671175  0.96281681    -0.44300
N2568       N  0.29699611  0.93828900  0.04190626    -0.44300
C2569       C  0.13242809  0.69808221  0.97771897    -0.00700
C2570       C  0.11130642  0.68235822  0.98980451    -0.12600
C2571       C  0.10831922  0.68077825  0.01863633     0.01600
C2572       C  0.12658192  0.69517753  0.03556518    -0.00800
C2573       C  0.14785511  0.71034268  0.02364301    -0.12500
C2574       C  0.15091344  0.71203645  0.99506896     0.01400
H2575       H  0.09695159  0.67160017  0.97672036     0.14400
H2576       H  0.16166705  0.72174944  0.03680800     0.14400
C2577       C  0.17198786  0.72992161  0.98435159     0.36100
C2578       C  0.08591660  0.66534045  0.03038095     0.36000
N2579       N  0.18881463  0.74444873  0.97599490    -0.44300
N2580       N  0.06794722  0.65304212  0.03989043    -0.44300
C2581       C  0.22402683  0.81748955  0.90150822    -0.00700
C2582       C  0.19656930  0.82456458  0.89567409    -0.12600
C2583       C  0.17546517  0.80462086  0.89745135     0.01600
C2584       C  0.18179408  0.77715515  0.90498980    -0.00800
C2585       C  0.20876841  0.77098843  0.91292446    -0.12500
C2586       C  0.22957732  0.79061489  0.91144279     0.01400
H2587       H  0.19182806  0.84513551  0.88831438     0.14400
H2588       H  0.21394931  0.75012042  0.91914468     0.14400
C2589       C  0.25682824  0.78217315  0.91953193     0.36100
C2590       C  0.14790708  0.81240814  0.89010258     0.36000
N2591       N  0.27858533  0.77515234  0.92596317    -0.44300
N2592       N  0.12574834  0.81884040  0.88450282    -0.44300
C2593       C  0.11812821  0.77785783  0.82705737    -0.00700
C2594       C  0.13903980  0.78046038  0.80726123    -0.12600
C2595       C  0.13792147  0.80040924  0.78629971     0.01600
C2596       C  0.11567368  0.81934157  0.78479794    -0.00800
C2597       C  0.09573038  0.81825487  0.80584991    -0.12500
C2598       C  0.09658367  0.79763877  0.82663062     0.01400
H2599       H  0.15595544  0.76588067  0.80730715     0.14400
H2600       H  0.07844186  0.83233406  0.80504018     0.14400
C2601       C  0.07408959  0.79622378  0.84598358     0.36100
C2602       C  0.15942245  0.79968449  0.76571853     0.36000
N2603       N  0.05602660  0.79509617  0.86148376    -0.44300
N2604       N  0.17646124  0.79844029  0.74908859    -0.44300
C2605       C  0.18612183  0.87779004  0.77622252    -0.00700
C2606       C  0.20658551  0.85725704  0.77589671    -0.12600
C2607       C  0.22758424  0.85609155  0.79585424     0.01600
C2608       C  0.22938284  0.87638315  0.81683156    -0.00800
C2609       C  0.20874903  0.89675747  0.81743472    -0.12500
C2610       C  0.18748509  0.89768167  0.79762907     0.01400
H2611       H  0.20645217  0.84200142  0.75969413     0.14400
H2612       H  0.20966392  0.91270989  0.83297203     0.14400
C2613       C  0.16831491  0.92034475  0.79908741     0.36100
C2614       C  0.24676590  0.83340752  0.79425978     0.36000
N2615       N  0.15306835  0.93862684  0.80024548    -0.44300
N2616       N  0.26197859  0.81510392  0.79299192    -0.44300
C2617       C  0.20520276  0.63587231  0.52806704    -0.00700
C2618       C  0.21437754  0.66068725  0.51610539    -0.12600
C2619       C  0.21819374  0.66344344  0.48746989     0.01600
C2620       C  0.21254655  0.64108125  0.46985808    -0.00800
C2621       C  0.20317352  0.61638308  0.48180349    -0.12500
C2622       C  0.19953297  0.61354857  0.51038319     0.01400
H2623       H  0.21918375  0.67801166  0.52922049     0.14400
H2624       H  0.19851337  0.59899375  0.46870935     0.14400
C2625       C  0.18986852  0.58739720  0.52066797     0.36100
C2626       C  0.22895120  0.68911196  0.47708062     0.36000
N2627       N  0.18217153  0.56637574  0.52878571    -0.44300
N2628       N  0.23768286  0.70967603  0.46885425    -0.44300
C2629       C  0.15297634  0.65734573  0.71670014    -0.00700
C2630       C  0.12899983  0.67297558  0.72039851    -0.12600
C2631       C  0.12112118  0.68231496  0.74672871     0.01600
C2632       C  0.13712304  0.67543064  0.77026332    -0.00800
C2633       C  0.16158501  0.66064881  0.76624359    -0.12500
C2634       C  0.16962869  0.65169296  0.74003543     0.01400
H2635       H  0.11639329  0.67798384  0.70263718     0.14400
H2636       H  0.17428783  0.65524339  0.78382056     0.14400
C2637       C  0.19449868  0.63549043  0.73823448     0.36100
C2638       C  0.09648328  0.69877102  0.74873265     0.36000
N2639       N  0.21443763  0.62254949  0.73695689    -0.44300
N2640       N  0.07680967  0.71208661  0.75027589    -0.44300
C2641       C  0.16676525  0.72736476  0.63723934    -0.00700
C2642       C  0.18845841  0.74529657  0.64308691    -0.12600
C2643       C  0.18336257  0.77055200  0.65615946     0.01600
C2644       C  0.15615679  0.77824410  0.66240212    -0.00800
C2645       C  0.13480330  0.76001330  0.65684422    -0.12500
C2646       C  0.13983185  0.73468180  0.64486958     0.01400
H2647       H  0.20934992  0.73911336  0.63841966     0.14400
H2648       H  0.11374180  0.76582404  0.66131494     0.14400
C2649       C  0.11654585  0.71707976  0.64049448     0.36100
C2650       C  0.20621238  0.78696900  0.66501474     0.36000
N2651       N  0.09715309  0.70383418  0.63765534    -0.44300
N2652       N  0.22460056  0.79967467  0.67277554    -0.44300
C2653       C  0.34214227  0.72372000  0.80878195    -0.00700
C2654       C  0.31568552  0.72840054  0.81930865    -0.12600
C2655       C  0.30776771  0.75449194  0.82855151     0.01600
C2656       C  0.32651241  0.77627189  0.82706170    -0.00800
C2657       C  0.35200735  0.77217372  0.81434173    -0.12500
C2658       C  0.36046595  0.74598072  0.80640292     0.01400
H2659       H  0.30198945  0.71125305  0.82237079     0.14400
H2660       H  0.36665371  0.78887245  0.81362917     0.14400
C2661       C  0.38947642  0.74200754  0.80194620     0.36100
C2662       C  0.28073764  0.75835129  0.84011348     0.36000
N2663       N  0.41300371  0.73972527  0.79998628    -0.44300
N2664       N  0.25902930  0.76165532  0.84922515    -0.44300
C2665       C  0.22039401  0.65631260  0.84849483    -0.00700
C2666       C  0.23075586  0.66806622  0.82430418    -0.12600
C2667       C  0.25861115  0.66654409  0.81812406     0.01600
C2668       C  0.27683436  0.65318887  0.83670654    -0.00800
C2669       C  0.26647019  0.64182589  0.86116197    -0.12500
C2670       C  0.23849501  0.64331138  0.86722360     0.01400
H2671       H  0.21702580  0.67902368  0.81043234     0.14400
H2672       H  0.28016985  0.63126944  0.87535645     0.14400
C2673       C  0.22960670  0.63247960  0.89344618     0.36100
C2674       C  0.26769722  0.67957463  0.79285570     0.36000
N2675       N  0.22396016  0.62366382  0.91491547    -0.44300
N2676       N  0.27467519  0.69031682  0.77267061    -0.44300
C2677       C  0.32171982  0.61464929  0.70781667    -0.00700
C2678       C  0.31843859  0.59045535  0.69243374    -0.12600
C2679       C  0.29766017  0.58868517  0.67251724     0.01600
C2680       C  0.27986268  0.61130318  0.66842262    -0.00800
C2681       C  0.28593517  0.63648884  0.68095459    -0.12500
C2682       C  0.30688157  0.63844694  0.70023832     0.01400
H2683       H  0.33027622  0.57224297  0.69771928     0.14400
H2684       H  0.27290187  0.65423468  0.67727165     0.14400
C2685       C  0.31163126  0.66472175  0.71318908     0.36100
C2686       C  0.29339577  0.56283007  0.65871291     0.36000
N2687       N  0.31551758  0.68580260  0.72341752    -0.44300
N2688       N  0.29006956  0.54216218  0.64748358    -0.44300
C2689       C  0.36496099  0.78529107  0.52278580    -0.00700
C2690       C  0.38825508  0.79715179  0.51049096    -0.12600
C2691       C  0.39075794  0.79969207  0.48163428     0.01600
C2692       C  0.36973311  0.78992899  0.46415394    -0.00800
C2693       C  0.34662491  0.77775280  0.47651545    -0.12500
C2694       C  0.34406699  0.77533773  0.50531038     0.01400
H2695       H  0.40441103  0.80506277  0.52351994     0.14400
H2696       H  0.33041508  0.76978637  0.46359269     0.14400
C2697       C  0.32009780  0.76167878  0.51615543     0.36100
C2698       C  0.41475321  0.81326476  0.47078951     0.36000
N2699       N  0.30090174  0.75068982  0.52480158    -0.44300
N2700       N  0.43398065  0.82424631  0.46220778    -0.44300
C2701       C  0.22862464  0.87051642  0.65758479    -0.00700
C2702       C  0.25153409  0.88189292  0.67053580    -0.12600
C2703       C  0.27794364  0.87448858  0.66236120     0.01600
C2704       C  0.28148386  0.85464323  0.64158755    -0.00800
C2705       C  0.25880368  0.84476294  0.62732708    -0.12500
C2706       C  0.23249921  0.85288404  0.63458011     0.01400
H2707       H  0.24888950  0.89616426  0.68750183     0.14400
H2708       H  0.26168951  0.83017822  0.61062647     0.14400
C2709       C  0.21031949  0.84187778  0.61831185     0.36100
C2710       C  0.30053863  0.88752869  0.67593846     0.36000
N2711       N  0.19272990  0.83289050  0.60521865    -0.44300
N2712       N  0.31779358  0.89945058  0.68685068    -0.44300
C2713       C  0.34513304  0.83223160  0.71523966    -0.00700
C2714       C  0.35081586  0.86018025  0.71981305    -0.12600
C2715       C  0.34501658  0.87270373  0.74486495     0.01600
C2716       C  0.33330400  0.85710534  0.76599663    -0.00800
C2717       C  0.32790295  0.82891215  0.76187811    -0.12500
C2718       C  0.33405281  0.81623488  0.73668843     0.01400
H2719       H  0.36091404  0.87222037  0.70399444     0.14400
H2720       H  0.31948423  0.81665836  0.77858491     0.14400
C2721       C  0.32948425  0.78707665  0.73360509     0.36100
C2722       C  0.35346497  0.90076606  0.74921003     0.36000
N2723       N  0.32602518  0.76366507  0.73129006    -0.44300
N2724       N  0.36048686  0.92313863  0.75287190    -0.44300
C2725       C  0.31187291  0.71791193  0.61506866    -0.00700
C2726       C  0.31262111  0.69649873  0.59566807    -0.12600
C2727       C  0.29266876  0.67568277  0.59596628     0.01600
C2728       C  0.27147004  0.67616704  0.61602948    -0.00800
C2729       C  0.27234592  0.69627424  0.63672456    -0.12500
C2730       C  0.29214115  0.71680121  0.63656614     0.01400
H2731       H  0.32776710  0.69691092  0.57923994     0.14400
H2732       H  0.25676874  0.69667568  0.65275951     0.14400
C2733       C  0.29086244  0.73699820  0.65838400     0.36100
C2734       C  0.29358596  0.65526930  0.57444311     0.36000
N2735       N  0.28954617  0.75322200  0.67576085    -0.44300
N2736       N  0.29434919  0.63889015  0.55718657    -0.44300
C2737       C  0.40448280  0.72792228  0.68553311    -0.00700
C2738       C  0.40170313  0.70019547  0.67824933    -0.12600
C2739       C  0.40410898  0.67897511  0.69795429     0.01600
C2740       C  0.40902609  0.68502488  0.72623280    -0.00800
C2741       C  0.41354199  0.71261424  0.73315220    -0.12500
C2742       C  0.41110080  0.73396001  0.71347828     0.01400
H2743       H  0.39737403  0.69496392  0.65695816     0.14400
H2744       H  0.41791736  0.71765299  0.75430761     0.14400
C2745       C  0.41405872  0.76185379  0.72320714     0.36100
C2746       C  0.40149886  0.65111524  0.68818359     0.36000
N2747       N  0.41636311  0.78414661  0.73114001    -0.44300
N2748       N  0.39945400  0.62881875  0.68022712    -0.44300
C2749       C  0.70578984  0.86798431  0.97232486    -0.00700
C2750       C  0.72944247  0.86199090  0.98735507    -0.12600
C2751       C  0.73022429  0.86543285  0.01597158     0.01600
C2752       C  0.70644541  0.87408266  0.03061296    -0.00800
C2753       C  0.68243342  0.87958396  0.01557627    -0.12500
C2754       C  0.68217464  0.87737513  0.98653895     0.01400
H2755       H  0.74770674  0.85507498  0.97651542     0.14400
H2756       H  0.66414789  0.88638361  0.02640282     0.14400
C2757       C  0.65765130  0.88534740  0.97196412     0.36100
C2758       C  0.75595020  0.85962010  0.02953058     0.36000
N2759       N  0.63783898  0.89225219  0.96077757    -0.44300
N2760       N  0.77683727  0.85523260  0.03994650    -0.44300
C2761       C  0.87114342  0.69449702  0.97306789    -0.00700
C2762       C  0.89197517  0.71023757  0.98526980    -0.12600
C2763       C  0.89482324  0.71218403  0.01411187     0.01600
C2764       C  0.87711038  0.69745475  0.03198072    -0.00800
C2765       C  0.85665560  0.68109880  0.01977844    -0.12500
C2766       C  0.85326477  0.67986416  0.99080337     0.01400
H2767       H  0.90586793  0.72176130  0.97212907     0.14400
H2768       H  0.84264736  0.66985907  0.03295355     0.14400
C2769       C  0.83151370  0.66316880  0.97988359     0.36100
C2770       C  0.91623003  0.72957229  0.02465835     0.36000
N2771       N  0.81402703  0.64979422  0.97119360    -0.44300
N2772       N  0.93330248  0.74365902  0.03303774    -0.44300
C2773       C  0.97360851  0.70883737  0.86620157    -0.00700
C2774       C  0.98717274  0.69451810  0.88750374    -0.12600
C2775       C  0.01584756  0.69339680  0.88891010     0.01600
C2776       C  0.03195379  0.70676669  0.86856028    -0.00800
C2777       C  0.01844136  0.72092612  0.84710936    -0.12500
C2778       C  0.98969267  0.72219496  0.84580353     0.01400
H2779       H  0.97529798  0.68397710  0.90325120     0.14400
H2780       H  0.03040198  0.73162855  0.83154040     0.14400
C2781       C  0.97748027  0.73840716  0.82395715     0.36100
C2782       C  0.02798319  0.67794625  0.91135708     0.36000
N2783       N  0.96777965  0.75150570  0.80647638    -0.44300
N2784       N  0.03759177  0.66560156  0.92942809    -0.44300
C2785       C  0.81556036  0.76443979  0.89606644    -0.00700
C2786       C  0.82303133  0.79128280  0.88808597    -0.12600
C2787       C  0.80347304  0.81281198  0.88736766     0.01600
C2788       C  0.77612538  0.80773786  0.89540348    -0.00800
C2789       C  0.76921494  0.78134146  0.90491125    -0.12500
C2790       C  0.78856327  0.75993421  0.90553366     0.01400
H2791       H  0.84376512  0.79509986  0.88101078     0.14400
H2792       H  0.74836014  0.77731554  0.91155826     0.14400
C2793       C  0.78038575  0.73379135  0.91705228     0.36100
C2794       C  0.81133702  0.83922941  0.87631218     0.36000
N2795       N  0.77366597  0.71315921  0.92688585    -0.44300
N2796       N  0.81755488  0.86036278  0.86723245    -0.44300
C2797       C  0.96683618  0.87550634  0.71314753    -0.00700
C2798       C  0.98215438  0.87113490  0.68904771    -0.12600
C2799       C  0.01091376  0.87235813  0.68940566     0.01600
C2800       C  0.02498363  0.87609938  0.71457894    -0.00800
C2801       C  0.00961051  0.88150324  0.73851733    -0.12500
C2802       C  0.98078938  0.88211132  0.73776792     0.01400
H2803       H  0.97157304  0.86757478  0.66973519     0.14400
H2804       H  0.02013340  0.88527137  0.75781853     0.14400
C2805       C  0.96597116  0.88964098  0.76246942     0.36100
C2806       C  0.02514885  0.87224871  0.66332962     0.36000
N2807       N  0.95412181  0.89591283  0.78222405    -0.44300
N2808       N  0.03573728  0.87337552  0.64196043    -0.44300
C2809       C  0.80961799  0.93346811  0.61909100    -0.00700
C2810       C  0.78239797  0.94181495  0.62312395    -0.12600
C2811       C  0.76726770  0.95427124  0.60201810     0.01600
C2812       C  0.77957643  0.95962114  0.57588148    -0.00800
C2813       C  0.80712991  0.95197268  0.57203300    -0.12500
C2814       C  0.82207196  0.93877004  0.59308539     0.01400
H2815       H  0.77229839  0.93751520  0.64265878     0.14400
H2816       H  0.81693514  0.95566900  0.55223888     0.14400
C2817       C  0.84991495  0.93059141  0.58697455     0.36100
C2818       C  0.73875224  0.95982364  0.60796063     0.36000
N2819       N  0.87215264  0.92396367  0.58180556    -0.44300
N2820       N  0.71591573  0.96385878  0.61308600    -0.44300
C2821       C  0.88667224  0.82151105  0.78524935    -0.00700
C2822       C  0.86175704  0.81006138  0.79378670    -0.12600
C2823       C  0.86047441  0.79125831  0.81575341     0.01600
C2824       C  0.88456598  0.78358555  0.83024910    -0.00800
C2825       C  0.90916727  0.79682109  0.82331501    -0.12500
C2826       C  0.91050177  0.81531671  0.80078036     0.01400
H2827       H  0.84331294  0.81474179  0.78228516     0.14400
H2828       H  0.92792161  0.79057866  0.83360528     0.14400
C2829       C  0.93715835  0.82454519  0.79201277     0.36100
C2830       C  0.83435921  0.77852444  0.82145163     0.36000
N2831       N  0.95891082  0.83107203  0.78519510    -0.44300
N2832       N  0.81338009  0.76830881  0.82562196    -0.44300
C2833       C  0.80466924  0.89922628  0.76817099    -0.00700
C2834       C  0.79635099  0.92289104  0.78262445    -0.12600
C2835       C  0.77629520  0.92139571  0.80371740     0.01600
C2836       C  0.76428661  0.89589528  0.81081545    -0.00800
C2837       C  0.77248032  0.87235596  0.79615737    -0.12500
C2838       C  0.79217059  0.87388993  0.77489876     0.01400
H2839       H  0.80591069  0.94242689  0.77784382     0.14400
H2840       H  0.76314278  0.85272926  0.80106043     0.14400
C2841       C  0.79856228  0.84932604  0.75944145     0.36100
C2842       C  0.76916631  0.94603064  0.81867893     0.36000
N2843       N  0.80347322  0.82982291  0.74669422    -0.44300
N2844       N  0.76348698  0.96569083  0.83085268    -0.44300
C2845       C  0.51982240  0.61517462  0.80012198    -0.00700
C2846       C  0.50644920  0.64068411  0.80345956    -0.12600
C2847       C  0.47824720  0.64245672  0.80843350     0.01600
C2848       C  0.46239708  0.61830844  0.81016427    -0.00800
C2849       C  0.47577923  0.59272417  0.80809445    -0.12500
C2850       C  0.50421990  0.59091536  0.80347117     0.01400
H2851       H  0.51795374  0.65962075  0.80149348     0.14400
H2852       H  0.46370401  0.57407530  0.80855899     0.14400
C2853       C  0.51636210  0.56393711  0.80080902     0.36100
C2854       C  0.46605278  0.66956030  0.80887213     0.36000
N2855       N  0.52605507  0.54226577  0.79871155    -0.44300
N2856       N  0.45718166  0.69167633  0.80869420    -0.44300
C2857       C  0.72407858  0.63225727  0.84343282    -0.00700
C2858       C  0.74813656  0.62349745  0.83023048    -0.12600
C2859       C  0.77388566  0.63337552  0.83830136     0.01600
C2860       C  0.77607130  0.65257770  0.86022888    -0.00800
C2861       C  0.75204116  0.66162703  0.87311534    -0.12500
C2862       C  0.72637101  0.65194160  0.86512450     0.01400
H2863       H  0.74689238  0.60878365  0.81352167     0.14400
H2864       H  0.75325588  0.67641223  0.88974122     0.14400
C2865       C  0.70310236  0.66295898  0.88009427     0.36100
C2866       C  0.79752875  0.62231989  0.82419101     0.36000
N2867       N  0.68474702  0.67215472  0.89219537    -0.44300
N2868       N  0.81605289  0.61289405  0.81257548    -0.44300
C2869       C  0.64499304  0.71634106  0.83716718    -0.00700
C2870       C  0.62396513  0.73269042  0.84831081    -0.12600
C2871       C  0.62885170  0.75957185  0.85684547     0.01600
C2872       C  0.65511189  0.77106050  0.85306426    -0.00800
C2873       C  0.67639466  0.75419195  0.84268490    -0.12500
C2874       C  0.67161224  0.72694637  0.83499717     0.01400
H2875       H  0.60366829  0.72407562  0.85110083     0.14400
H2876       H  0.69697230  0.76221960  0.84061229     0.14400
C2877       C  0.69413357  0.71070951  0.82441593     0.36100
C2878       C  0.60686195  0.77403498  0.87066407     0.36000
N2879       N  0.71245782  0.69800533  0.81605584    -0.44300
N2880       N  0.58919878  0.78526477  0.88204026    -0.44300
C2881       C  0.80280830  0.62193439  0.53355927    -0.00700
C2882       C  0.77999068  0.61068017  0.51974975    -0.12600
C2883       C  0.77632802  0.61363950  0.49116699     0.01600
C2884       C  0.79551571  0.62835577  0.47525048    -0.00800
C2885       C  0.81936221  0.63776428  0.48834005    -0.12500
C2886       C  0.82330219  0.63451826  0.51710235     0.01400
H2887       H  0.76420322  0.60013807  0.53144050     0.14400
H2888       H  0.83520444  0.64721626  0.47596714     0.14400
C2889       C  0.84875706  0.64372200  0.52876329     0.36100
C2890       C  0.75215921  0.60201682  0.47877161     0.36000
N2891       N  0.86958285  0.65066582  0.53758894    -0.44300
N2892       N  0.73284194  0.59258723  0.46886547    -0.44300
C2893       C  0.84394728  0.65593969  0.72058570    -0.00700
C2894       C  0.82322421  0.66654172  0.73790902    -0.12600
C2895       C  0.82747483  0.66996017  0.76598679     0.01600
C2896       C  0.85257846  0.66180515  0.77742514    -0.00800
C2897       C  0.87376753  0.65208976  0.76035746    -0.12500
C2898       C  0.86984501  0.64963477  0.73185960     0.01400
H2899       H  0.80316677  0.67142403  0.72968386     0.14400
H2900       H  0.89354610  0.64700119  0.76924914     0.14400
C2901       C  0.89252678  0.64053632  0.71498390     0.36100
C2902       C  0.80550311  0.68110316  0.78272244     0.36000
N2903       N  0.91093068  0.63365988  0.70152095    -0.44300
N2904       N  0.78788873  0.69009162  0.79602090    -0.44300
C2905       C  0.81749452  0.72854014  0.64934731    -0.00700
C2906       C  0.82963793  0.74378431  0.62786844    -0.12600
C2907       C  0.83766220  0.77119751  0.63153354     0.01600
C2908       C  0.83441392  0.78381826  0.65755719    -0.00800
C2909       C  0.82030596  0.76912761  0.67842604    -0.12500
C2910       C  0.81147551  0.74191131  0.67432515     0.01400
H2911       H  0.83360889  0.73396571  0.60820939     0.14400
H2912       H  0.81654304  0.77878034  0.69823643     0.14400
C2913       C  0.79587743  0.72843297  0.69570718     0.36100
C2914       C  0.85008497  0.78522341  0.60843225     0.36000
N2915       N  0.78272225  0.71816395  0.71274067    -0.44300
N2916       N  0.85960479  0.79615852  0.58946879    -0.44300
C2917       C  0.71564185  0.61433674  0.68731796    -0.00700
C2918       C  0.71309318  0.63591275  0.70631862    -0.12600
C2919       C  0.69323253  0.63555401  0.72708614     0.01600
C2920       C  0.67474934  0.61327048  0.72914099    -0.00800
C2921       C  0.67578835  0.59276496  0.70867292    -0.12500
C2922       C  0.69604650  0.59306605  0.68791741     0.01400
H2923       H  0.72753866  0.65279962  0.70566497     0.14400
H2924       H  0.66169189  0.57563221  0.70969141     0.14400
C2925       C  0.69732192  0.57039630  0.66881300     0.36100
C2926       C  0.69307152  0.65822116  0.74623852     0.36000
N2927       N  0.69832893  0.55221620  0.65349230    -0.44300
N2928       N  0.69296607  0.67658962  0.76133670    -0.44300
C2929       C  0.52400127  0.79020983  0.63233161    -0.00700
C2930       C  0.51356957  0.80582863  0.60991044    -0.12600
C2931       C  0.48519646  0.80911990  0.60583914     0.01600
C2932       C  0.46683574  0.79642057  0.62419684    -0.00800
C2933       C  0.47708023  0.78157897  0.64686425    -0.12500
C2934       C  0.50523204  0.77832177  0.65108650     0.01400
H2935       H  0.52761720  0.81544367  0.59545767     0.14400
H2936       H  0.46290433  0.77204112  0.66125380     0.14400
C2937       C  0.51398607  0.76152006  0.67410898     0.36100
C2938       C  0.47536990  0.82548085  0.58291526     0.36000
N2939       N  0.52075254  0.74798543  0.69262230    -0.44300
N2940       N  0.46741016  0.83864112  0.56460352    -0.44300
C2941       C  0.63048998  0.79178144  0.53153774    -0.00700
C2942       C  0.65444705  0.78393702  0.51741653    -0.12600
C2943       C  0.65525910  0.78216567  0.48848097     0.01600
C2944       C  0.63155813  0.78809671  0.47257134    -0.00800
C2945       C  0.60755181  0.79602660  0.48663129    -0.12500
C2946       C  0.60680794  0.79805939  0.51563440     0.01400
H2947       H  0.67268573  0.77864580  0.52907270     0.14400
H2948       H  0.58928585  0.80103207  0.47489278     0.14400
C2949       C  0.58143834  0.80700738  0.52827081     0.36100
C2950       C  0.68064161  0.77325232  0.47589933     0.36000
N2951       N  0.56108371  0.81415556  0.53834079    -0.44300
N2952       N  0.70096656  0.76613109  0.46576816    -0.44300
C2953       C  0.65052095  0.83642472  0.72345393    -0.00700
C2954       C  0.66806490  0.81786689  0.73745168    -0.12600
C2955       C  0.67529692  0.82194395  0.76524322     0.01600
C2956       C  0.66473107  0.84482791  0.77951728    -0.00800
C2957       C  0.64761952  0.86348583  0.76547578    -0.12500
C2958       C  0.64051794  0.85960955  0.73780682     0.01400
H2959       H  0.67568040  0.79977128  0.72681527     0.14400
H2960       H  0.63916750  0.88100662  0.77644114     0.14400
C2961       C  0.62134319  0.87875035  0.72551339     0.36100
C2962       C  0.69235237  0.80175035  0.77888076     0.36000
N2963       N  0.60587081  0.89419271  0.71599370    -0.44300
N2964       N  0.70604146  0.78533968  0.78948874    -0.44300
C2965       C  0.72378874  0.83081100  0.64211655    -0.00700
C2966       C  0.72618743  0.84739166  0.66581718    -0.12600
C2967       C  0.75193520  0.85502192  0.67616828     0.01600
C2968       C  0.77609450  0.84553166  0.66308500    -0.00800
C2969       C  0.77366273  0.82782985  0.64037406    -0.12500
C2970       C  0.74808716  0.82058762  0.62974106     0.01400
H2971       H  0.70787474  0.85545295  0.67569486     0.14400
H2972       H  0.79200241  0.82035047  0.63008668     0.14400
C2973       C  0.74775874  0.80287053  0.60589120     0.36100
C2974       C  0.75278637  0.87435013  0.69870663     0.36000
N2975       N  0.74767114  0.78868092  0.58676788    -0.44300
N2976       N  0.75328701  0.89002396  0.71661427    -0.44300
C2977       C  0.65786368  0.89055090  0.58172559    -0.00700
C2978       C  0.65327035  0.91874600  0.58698256    -0.12600
C2979       C  0.66376380  0.93947651  0.56927137     0.01600
C2980       C  0.67947934  0.93230758  0.54565911    -0.00800
C2981       C  0.68325706  0.90427806  0.54018722    -0.12500
C2982       C  0.67282519  0.88363728  0.55754406     0.01400
H2983       H  0.64212653  0.92469938  0.60543875     0.14400
H2984       H  0.69574014  0.89834245  0.52282605     0.14400
C2985       C  0.68025193  0.85567572  0.55089064     0.36100
C2986       C  0.65995301  0.96784496  0.57711587     0.36000
N2987       N  0.68685760  0.83353686  0.54516849    -0.44300
N2988       N  0.65704174  0.99056036  0.58359458    -0.44300
C2989       C  0.60920058  0.70844601  0.67740916    -0.00700
C2990       C  0.58701895  0.68984079  0.67776532    -0.12600
C2991       C  0.58550484  0.66819508  0.69768518     0.01600
C2992       C  0.60610197  0.66522532  0.71809823    -0.00800
C2993       C  0.62912122  0.68228351  0.71585016    -0.12500
C2994       C  0.63112338  0.70308108  0.69583761     0.01400
H2995       H  0.57009906  0.69314997  0.66366653     0.14400
H2996       H  0.64529362  0.68029722  0.73091589     0.14400
C2997       C  0.65577529  0.71941196  0.69563807     0.36100
C2998       C  0.56192553  0.65048983  0.69780484     0.36000
N2999       N  0.67547409  0.73253229  0.69568877    -0.44300
N3000       N  0.54312495  0.63609655  0.69776901    -0.44300
C3001       C  0.68611264  0.72872901  0.61129889    -0.00700
C3002       C  0.68282537  0.70717235  0.59217966    -0.12600
C3003       C  0.70426778  0.68836878  0.58651676     0.01600
C3004       C  0.73008022  0.69129442  0.59922818    -0.00800
C3005       C  0.73357036  0.71307533  0.61773105    -0.12500
C3006       C  0.71208642  0.73122195  0.62428348     0.01400
H3007       H  0.66338676  0.70478060  0.58172272     0.14400
H3008       H  0.75275317  0.71516655  0.62855166     0.14400
C3009       C  0.71739278  0.75118812  0.64559035     0.36100
C3010       C  0.69936206  0.66608226  0.56762844     0.36000
N3011       N  0.72186302  0.76681196  0.66294183    -0.44300
N3012       N  0.69552664  0.64821231  0.55244487    -0.44300
C3013       C  0.29848407  0.12580951  0.97121437    -0.00700
C3014       C  0.28171843  0.10545313  0.98293120    -0.12600
C3015       C  0.28003914  0.10190135  0.01152140     0.01600
C3016       C  0.29568700  0.11872636  0.02907977    -0.00800
C3017       C  0.31386850  0.13783563  0.01730139    -0.12500
C3018       C  0.31521266  0.14166048  0.98860029     0.01400
H3019       H  0.26915599  0.09278837  0.96967298     0.14400
H3020       H  0.32613229  0.15074445  0.03054940     0.14400
C3021       C  0.33404740  0.16175241  0.97774926     0.36100
C3022       C  0.26192665  0.08096814  0.02224606     0.36000
N3023       N  0.34936692  0.17801640  0.96971782    -0.44300
N3024       N  0.24738451  0.06426252  0.03087970    -0.44300
C3025       C  0.29958820  0.96797572  0.86134648    -0.00700
C3026       C  0.29197853  0.98280947  0.83749282    -0.12600
C3027       C  0.29206893  0.01192968  0.83678085     0.01600
C3028       C  0.30006512  0.02729296  0.86034110    -0.00800
C3029       C  0.30862948  0.01237703  0.88375538    -0.12500
C3030       C  0.30861094  0.98341813  0.88449157     0.01400
H3031       H  0.28516051  0.97165064  0.81946011     0.14400
H3032       H  0.31531317  0.02343119  0.90191185     0.14400
C3033       C  0.31826347  0.97037593  0.90955021     0.36100
C3034       C  0.28275158  0.02526906  0.81181031     0.36000
N3035       N  0.32600207  0.96007553  0.92969587    -0.44300
N3036       N  0.27513411  0.03577584  0.79173405    -0.44300
C3037       C  0.14124741  0.02733137  0.71000283    -0.00700
C3038       C  0.12017730  0.01336336  0.69630027    -0.12600
C3039       C  0.11896459  0.98460719  0.69633233     0.01600
C3040       C  0.13899159  0.96898689  0.71068137    -0.00800
C3041       C  0.16062680  0.98279011  0.72348708    -0.12500
C3042       C  0.16210314  0.01160599  0.72306232     0.01400
H3043       H  0.10439858  0.02496823  0.68554827     0.14400
H3044       H  0.17623024  0.97102575  0.73432097     0.14400
C3045       C  0.18488268  0.02422343  0.73696270     0.36100
C3046       C  0.09713295  0.97178508  0.68101609     0.36000
N3047       N  0.20327844  0.03417763  0.74805101    -0.44300
N3048       N  0.07965342  0.96157625  0.66871209    -0.44300
C3049       C  0.18040473  0.11394150  0.78399905    -0.00700
C3050       C  0.19713876  0.13722408  0.78649397    -0.12600
C3051       C  0.21983378  0.13743550  0.80387356     0.01600
C3052       C  0.22543377  0.11462856  0.82126314    -0.00800
C3053       C  0.20727753  0.09213049  0.82072587    -0.12500
C3054       C  0.18517885  0.09138712  0.80195049     0.01400
H3055       H  0.19358325  0.15499091  0.77329419     0.14400
H3056       H  0.21131557  0.07437222  0.83375719     0.14400
C3057       C  0.16902767  0.06667462  0.80034650     0.36100
C3058       C  0.23752483  0.16114492  0.80227758     0.36000
N3059       N  0.15615190  0.04680574  0.79904367    -0.44300
N3060       N  0.25158008  0.18020175  0.80095947    -0.44300
C3061       C  0.14188241  0.29779957  0.97447356    -0.00700
C3062       C  0.12187309  0.31373134  0.98815792    -0.12600
C3063       C  0.12143559  0.31615699  0.01716026     0.01600
C3064       C  0.14092124  0.30186576  0.03356035    -0.00800
C3065       C  0.16183734  0.28724560  0.01985604    -0.12500
C3066       C  0.16259796  0.28520193  0.99084260     0.01400
H3067       H  0.10637922  0.32442077  0.97613880     0.14400
H3068       H  0.17727331  0.27648104  0.03189500     0.14400
C3069       C  0.18447815  0.26912781  0.97875537     0.36100
C3070       C  0.10111249  0.33405804  0.02943125     0.36000
N3071       N  0.20214339  0.25633266  0.96917600    -0.44300
N3072       N  0.08500019  0.34857276  0.03930873    -0.44300
C3073       C  0.17557449  0.21392495  0.89106944    -0.00700
C3074       C  0.18161388  0.20010097  0.91616403    -0.12600
C3075       C  0.20157202  0.17857101  0.91734309     0.01600
C3076       C  0.21582902  0.17045919  0.89315520    -0.00800
C3077       C  0.20755771  0.18246098  0.86809474    -0.12500
C3078       C  0.18807519  0.20370658  0.86674065     0.01400
H3079       H  0.17231681  0.20739871  0.93514440     0.14400
H3080       H  0.21804671  0.17657471  0.84941479     0.14400
C3081       C  0.18269651  0.21571244  0.83992347     0.36100
C3082       C  0.20845614  0.16654703  0.94372551     0.36000
N3083       N  0.17878546  0.22521294  0.81831759    -0.44300
N3084       N  0.21388312  0.15670898  0.96484382    -0.44300
C3085       C  0.10692804  0.21862295  0.82660051    -0.00700
C3086       C  0.11270911  0.19097975  0.83382254    -0.12600
C3087       C  0.11332177  0.16981016  0.81348430     0.01600
C3088       C  0.10848071  0.17612910  0.78527070    -0.00800
C3089       C  0.10128524  0.20338265  0.77864137    -0.12500
C3090       C  0.10041424  0.22423034  0.79862804     0.01400
H3091       H  0.11819140  0.18613320  0.85497907     0.14400
H3092       H  0.09705894  0.20869420  0.75727392     0.14400
C3093       C  0.09365747  0.25175707  0.78949530     0.36100
C3094       C  0.12037626  0.14216701  0.82178423     0.36000
N3095       N  0.08830015  0.27378779  0.78208278    -0.44300
N3096       N  0.12586197  0.11994840  0.82853326    -0.44300
C3097       C  0.36242817  0.47074470  0.78879694    -0.00700
C3098       C  0.38248857  0.48598336  0.80277882    -0.12600
C3099       C  0.38231861  0.51484802  0.80235303     0.01600
C3100       C  0.36183096  0.52923589  0.78748135    -0.00800
C3101       C  0.34130774  0.51408107  0.77425043    -0.12500
C3102       C  0.34144773  0.48523819  0.77466702     0.01400
H3103       H  0.39845328  0.47529727  0.81416962     0.14400
H3104       H  0.32545448  0.52480551  0.76273211     0.14400
C3105       C  0.32042746  0.47129612  0.75929251     0.36100
C3106       C  0.40295221  0.52909528  0.81803411     0.36000
N3107       N  0.30349094  0.46028641  0.74693626    -0.44300
N3108       N  0.41938811  0.54051421  0.83070632    -0.44300
C3109       C  0.33529360  0.22387762  0.84009021    -0.00700
C3110       C  0.36065740  0.22983596  0.82771863    -0.12600
C3111       C  0.36809563  0.25692578  0.82114919     0.01600
C3112       C  0.35008420  0.27898777  0.82709171    -0.00800
C3113       C  0.32438930  0.27317796  0.83857676    -0.12500
C3114       C  0.31669910  0.24601276  0.84483819     0.01400
H3115       H  0.37510213  0.21329086  0.82367805     0.14400
H3116       H  0.31039783  0.28998194  0.84301018     0.14400
C3117       C  0.28995746  0.24189646  0.85698461     0.36100
C3118       C  0.39502434  0.26141251  0.80967554     0.36000
N3119       N  0.26845669  0.23878245  0.86661985    -0.44300
N3120       N  0.41681292  0.26424923  0.80066125    -0.44300
C3121       C  0.28243580  0.34895160  0.84318145    -0.00700
C3122       C  0.26290511  0.35893968  0.82424950    -0.12600
C3123       C  0.23480440  0.35536017  0.82878171     0.01600
C3124       C  0.22580786  0.34022145  0.85187921    -0.00800
C3125       C  0.24522759  0.33051021  0.87106771    -0.12500
C3126       C  0.27332555  0.33539380  0.86728860     0.01400
H3127       H  0.26962130  0.37021497  0.80607422     0.14400
H3128       H  0.23835041  0.31933623  0.88923948     0.14400
C3129       C  0.29231718  0.32592564  0.88810476     0.36100
C3130       C  0.21584611  0.36781197  0.80961111     0.36000
N3131       N  0.30754760  0.31850034  0.90486721    -0.44300
N3132       N  0.20122160  0.37855711  0.79415301    -0.44300
C3133       C  0.20896398  0.46690689  0.63264934    -0.00700
C3134       C  0.20449964  0.48086125  0.65762894    -0.12600
C3135       C  0.20128824  0.50955781  0.65836203     0.01600
C3136       C  0.20261453  0.52523728  0.63358497    -0.00800
C3137       C  0.20605313  0.51116931  0.60853643    -0.12500
C3138       C  0.20926086  0.48253339  0.60777442     0.01400
H3139       H  0.20355543  0.46931570  0.67683448     0.14400
H3140       H  0.20708201  0.52265480  0.58929888     0.14400
C3141       C  0.21364084  0.47022250  0.58100169     0.36100
C3142       C  0.19655594  0.52204774  0.68497337     0.36000
N3143       N  0.21712152  0.46053086  0.55947387    -0.44300
N3144       N  0.19268860  0.53191551  0.70635420    -0.44300
C3145       C  0.20884437  0.35767051  0.53119158    -0.00700
C3146       C  0.19286047  0.37697432  0.51690294    -0.12600
C3147       C  0.19254867  0.37750594  0.48813471     0.01600
C3148       C  0.20908696  0.35877826  0.47306532    -0.00800
C3149       C  0.22393576  0.33848357  0.48727531    -0.12500
C3150       C  0.22396381  0.33776763  0.51619332     0.01400
H3151       H  0.18054431  0.39174635  0.52828858     0.14400
H3152       H  0.23657152  0.32403481  0.47584610     0.14400
C3153       C  0.24087514  0.31741028  0.52983631     0.36100
C3154       C  0.17486759  0.39742465  0.47470342     0.36000
N3155       N  0.25444169  0.30108034  0.54073717    -0.44300
N3156       N  0.16068711  0.41336275  0.46400355    -0.44300
C3157       C  0.16335620  0.34263071  0.72147981    -0.00700
C3158       C  0.14729591  0.36143873  0.73636446    -0.12600
C3159       C  0.14454908  0.35917531  0.76509520     0.01600
C3160       C  0.15638040  0.33663191  0.77933614    -0.00800
C3161       C  0.17213322  0.31756684  0.76431149    -0.12500
C3162       C  0.17639855  0.32087047  0.73584906     0.01400
H3163       H  0.13806529  0.37878800  0.72573776     0.14400
H3164       H  0.18159832  0.30028531  0.77493662     0.14400
C3165       C  0.19447791  0.30178200  0.72199999     0.36100
C3166       C  0.13054384  0.38082026  0.77970306     0.36000
N3167       N  0.20921296  0.28651501  0.71116974    -0.44300
N3168       N  0.12022047  0.39799982  0.79252131    -0.44300
C3169       C  0.16609459  0.26731164  0.63559766    -0.00700
C3170       C  0.16012718  0.26339586  0.66366328    -0.12600
C3171       C  0.15347721  0.23747607  0.67408238     0.01600
C3172       C  0.15253449  0.21458075  0.65609072    -0.00800
C3173       C  0.15817015  0.21856128  0.62792739    -0.12500
C3174       C  0.16472862  0.24456843  0.61751884     0.01400
H3175       H  0.16060974  0.28072321  0.67765751     0.14400
H3176       H  0.15714058  0.20131844  0.61383534     0.14400
C3177       C  0.16861729  0.24727640  0.58804631     0.36100
C3178       C  0.14678531  0.23559833  0.70313211     0.36000
N3179       N  0.17152992  0.24922856  0.56438738    -0.44300
N3180       N  0.14143862  0.23440747  0.72641331    -0.44300
C3181       C  0.32563804  0.38664389  0.71980561    -0.00700
C3182       C  0.29851465  0.39294667  0.72687244    -0.12600
C3183       C  0.27810313  0.39423838  0.70694064     0.01600
C3184       C  0.28444823  0.38873454  0.67897776    -0.00800
C3185       C  0.31192735  0.38404536  0.67140592    -0.12500
C3186       C  0.33265273  0.38316462  0.69170540     0.01400
H3187       H  0.29309548  0.39638525  0.74835942     0.14400
H3188       H  0.31695433  0.37967174  0.65003773     0.14400
C3189       C  0.36046200  0.37713980  0.68351331     0.36100
C3190       C  0.25049362  0.40051613  0.71601669     0.36000
N3191       N  0.38277797  0.37235242  0.67688766    -0.44300
N3192       N  0.22841403  0.40540844  0.72335529    -0.44300
C3193       C  0.36510646  0.20808346  0.52495507    -0.00700
C3194       C  0.34049576  0.21592739  0.51182159    -0.12600
C3195       C  0.33736642  0.21443201  0.48291239     0.01600
C3196       C  0.35947866  0.20565244  0.46610080    -0.00800
C3197       C  0.38392418  0.19748173  0.47933632    -0.12500
C3198       C  0.38692121  0.19850589  0.50811651     0.01400
H3199       H  0.32344858  0.22328699  0.52420814     0.14400
H3200       H  0.40118407  0.19033411  0.46711366     0.14400
C3201       C  0.41277868  0.18935737  0.51947028     0.36100
C3202       C  0.31115950  0.22188648  0.47129555     0.36000
N3203       N  0.43358658  0.18203556  0.52834587    -0.44300
N3204       N  0.29004585  0.22771452  0.46208853    -0.44300
C3205       C  0.33269202  0.16199424  0.71396785    -0.00700
C3206       C  0.32190274  0.13544081  0.71697372    -0.12600
C3207       C  0.31554470  0.12481576  0.74288428     0.01600
C3208       C  0.31930514  0.14127430  0.76653467    -0.00800
C3209       C  0.32595617  0.16921297  0.76303923    -0.12500
C3210       C  0.33264507  0.17973922  0.73699060     0.01400
H3211       H  0.32052757  0.12190849  0.69928532     0.14400
H3212       H  0.32756594  0.18255602  0.78084925     0.14400
C3213       C  0.34029230  0.20835427  0.73487231     0.36100
C3214       C  0.30738012  0.09633286  0.74421915     0.36000
N3215       N  0.34629056  0.23131021  0.73325020    -0.44300
N3216       N  0.30106267  0.07343480  0.74482231    -0.44300
C3217       C  0.21799990  0.15505388  0.65372886    -0.00700
C3218       C  0.22111643  0.16143627  0.62549924    -0.12600
C3219       C  0.24678369  0.16843309  0.61436774     0.01600
C3220       C  0.27014644  0.16827560  0.63144717    -0.00800
C3221       C  0.26680645  0.16311376  0.65981931    -0.12500
C3222       C  0.24119048  0.15695565  0.67114985     0.01400
H3223       H  0.20348292  0.16062582  0.61195858     0.14400
H3224       H  0.28444523  0.16385826  0.67336349     0.14400
C3225       C  0.23988797  0.15186373  0.70058296     0.36100
C3226       C  0.24855950  0.17477649  0.58530456     0.36000
N3227       N  0.23905621  0.14797757  0.72418223    -0.44300
N3228       N  0.24958323  0.18005037  0.56199955    -0.44300
C3229       C  0.31898205  0.27120380  0.61650729    -0.00700
C3230       C  0.29341122  0.26414425  0.62779487    -0.12600
C3231       C  0.27185506  0.28298912  0.62930753     0.01600
C3232       C  0.27485015  0.30989159  0.61823983    -0.00800
C3233       C  0.30051916  0.31714137  0.60695960    -0.12500
C3234       C  0.32254121  0.29824222  0.60628679     0.01400
H3235       H  0.29008094  0.24357835  0.63589977     0.14400
H3236       H  0.30350012  0.33768076  0.59870916     0.14400
C3237       C  0.34859016  0.30733952  0.59558930     0.36100
C3238       C  0.24715087  0.27345770  0.64263757     0.36000
N3239       N  0.36956536  0.31458623  0.58715474    -0.44300
N3240       N  0.22780773  0.26524338  0.65370779    -0.44300
C3241       C  0.40649093  0.31669736  0.72117411    -0.00700
C3242       C  0.38028070  0.31298119  0.71018491    -0.12600
C3243       C  0.37563750  0.29424854  0.68880674     0.01600
C3244       C  0.39781295  0.27993440  0.67650802    -0.00800
C3245       C  0.42441132  0.28500541  0.68639732    -0.12500
C3246       C  0.42872473  0.30245450  0.70916014     0.01400
H3247       H  0.36290072  0.32302575  0.72000277     0.14400
H3248       H  0.44156709  0.27362430  0.67780710     0.14400
C3249       C  0.45570348  0.30411739  0.72101046     0.36100
C3250       C  0.34756459  0.28879833  0.68175511     0.36000
N3251       N  0.47723405  0.30535094  0.73081281    -0.44300
N3252       N  0.32461849  0.28492218  0.67754012    -0.44300
C3253       C  0.86797643  0.28718894  0.97064845    -0.00700
C3254       C  0.84564768  0.27455440  0.98398612    -0.12600
C3255       C  0.84376940  0.27326322  0.01293335     0.01600
C3256       C  0.86482046  0.28437731  0.02947493    -0.00800
C3257       C  0.88749164  0.29636314  0.01619108    -0.12500
C3258       C  0.88920975  0.29796001  0.98722882     0.01400
H3259       H  0.82944399  0.26562314  0.97171334     0.14400
H3260       H  0.90383003  0.30496234  0.02852425     0.14400
C3261       C  0.91281132  0.31129056  0.97523864     0.36100
C3262       C  0.82038009  0.25956799  0.02497007     0.36000
N3263       N  0.93178149  0.32188391  0.96562984    -0.44300
N3264       N  0.80161290  0.24859729  0.03455981    -0.44300
C3265       C  0.97476172  0.30682865  0.87703502    -0.00700
C3266       C  0.98663318  0.28627076  0.86036377    -0.12600
C3267       C  0.01511658  0.28401848  0.85656353     0.01600
C3268       C  0.03305028  0.30185556  0.87061627    -0.00800
C3269       C  0.02120344  0.32302868  0.88677982    -0.12500
C3270       C  0.99238027  0.32599696  0.88950602     0.01400
H3271       H  0.97348568  0.27152241  0.85027802     0.14400
H3272       H  0.03450250  0.33728335  0.89737006     0.14400
C3273       C  0.98139305  0.34823339  0.90580778     0.36100
C3274       C  0.02525793  0.26228501  0.83899111     0.36000
N3275       N  0.97250725  0.36617383  0.91872482    -0.44300
N3276       N  0.03321368  0.24490989  0.82476011    -0.44300
C3277       C  0.72644743  0.11874742  0.97817595    -0.00700
C3278       C  0.73027628  0.14258927  0.99381283    -0.12600
C3279       C  0.73206967  0.14170465  0.02255388     0.01600
C3280       C  0.73057594  0.11625750  0.03687148    -0.00800
C3281       C  0.72846646  0.09207427  0.02126798    -0.12500
C3282       C  0.72663557  0.09301464  0.99220054     0.01400
H3283       H  0.73094869  0.16250090  0.98361487     0.14400
H3284       H  0.72645158  0.07250375  0.03191996     0.14400
C3285       C  0.72361745  0.06734415  0.97769555     0.36100
C3286       C  0.73323499  0.16797047  0.03619865     0.36000
N3287       N  0.72127765  0.04672033  0.96611756    -0.44300
N3288       N  0.73405076  0.18992946  0.04528868    -0.44300
C3289       C  0.70273938  0.02509430  0.88468365    -0.00700
C3290       C  0.67737945  0.01221615  0.87966778    -0.12600
C3291       C  0.67486410  0.98315330  0.87902842     0.01600
C3292       C  0.69820030  0.96597285  0.88273289    -0.00800
C3293       C  0.72316024  0.97896513  0.88877782    -0.12500
C3294       C  0.72564922  0.00766564  0.88996818     0.01400
H3295       H  0.65937571  0.02487453  0.87607494     0.14400
H3296       H  0.74140782  0.96659501  0.89220696     0.14400
C3297       C  0.75251478  0.01821115  0.89629994     0.36100
C3298       C  0.64788910  0.97182640  0.87559499     0.36000
N3299       N  0.77411272  0.02643191  0.90140422    -0.44300
N3300       N  0.62594351  0.96325367  0.87348077    -0.44300
C3301       C  0.82533622  0.21898450  0.88298097    -0.00700
C3302       C  0.82604324  0.20172427  0.90638989    -0.12600
C3303       C  0.80689529  0.18065215  0.90972163     0.01600
C3304       C  0.78711268  0.17649634  0.88909358    -0.00800
C3305       C  0.78851992  0.19161270  0.86437427    -0.12500
C3306       C  0.80728404  0.21285605  0.86117166     0.01400
H3307       H  0.84001843  0.20610746  0.92315668     0.14400
H3308       H  0.77367132  0.18795402  0.84817037     0.14400
C3309       C  0.80657273  0.22876611  0.83587039     0.36100
C3310       C  0.80609823  0.16578467  0.93560272     0.36000
N3311       N  0.80581048  0.24155617  0.81565454    -0.44300
N3312       N  0.80535640  0.15396425  0.95639757    -0.44300
C3313       C  0.97206562  0.13055619  0.71482217    -0.00700
C3314       C  0.98596097  0.11027095  0.69950584    -0.12600
C3315       C  0.01488008  0.10912701  0.69862444     0.01600
C3316       C  0.03067665  0.12872337  0.71315194    -0.00800
C3317       C  0.01663534  0.14840547  0.72908989    -0.12500
C3318       C  0.98788927  0.14921373  0.73038631     0.01400
H3319       H  0.97420175  0.09569302  0.68757893     0.14400
H3320       H  0.02820246  0.16305754  0.74112903     0.14400
C3321       C  0.97530409  0.16873293  0.74894900     0.36100
C3322       C  0.02766421  0.08807446  0.68200343     0.36000
N3323       N  0.96566335  0.18427683  0.76421930    -0.44300
N3324       N  0.03785479  0.07109917  0.66873788    -0.44300
C3325       C  0.87408152  0.97395636  0.69839753    -0.00700
C3326       C  0.87329654  0.98798320  0.67270541    -0.12600
C3327       C  0.87424688  0.01721406  0.67103848     0.01600
C3328       C  0.87591532  0.03322582  0.69541639    -0.00800
C3329       C  0.87695961  0.01902474  0.72077049    -0.12500
C3330       C  0.87589430  0.99030952  0.72256199     0.01400
H3331       H  0.87194407  0.97613868  0.65384662     0.14400
H3332       H  0.87776983  0.03052116  0.73989550     0.14400
C3333       C  0.87537279  0.97865226  0.75007941     0.36100
C3334       C  0.87420986  0.03007340  0.64412196     0.36000
N3335       N  0.87486271  0.96949568  0.77218599    -0.44300
N3336       N  0.87441829  0.04027032  0.62247068    -0.44300
C3337       C  0.81099154  0.07742104  0.61602863    -0.00700
C3338       C  0.78647924  0.06368411  0.62184229    -0.12600
C3339       C  0.77226602  0.04937085  0.60140207     0.01600
C3340       C  0.78264443  0.04799947  0.57392528    -0.00800
C3341       C  0.80745788  0.06132482  0.56811738    -0.12500
C3342       C  0.82148277  0.07610428  0.58856343     0.01400
H3343       H  0.77790745  0.06451484  0.64252264     0.14400
H3344       H  0.81556684  0.06100769  0.54723430     0.14400
C3345       C  0.84620386  0.09006994  0.58015832     0.36100
C3346       C  0.74662762  0.03704367  0.60960230     0.36000
N3347       N  0.86593284  0.10115623  0.57301071    -0.44300
N3348       N  0.72594773  0.02759122  0.61635735    -0.44300
C3349       C  0.81035703  0.09884311  0.76791471    -0.00700
C3350       C  0.81806928  0.10513386  0.79507528    -0.12600
C3351       C  0.79955772  0.10396725  0.81716895     0.01600
C3352       C  0.77183573  0.09620604  0.81284766    -0.00800
C3353       C  0.76417751  0.08887507  0.78580245    -0.12500
C3354       C  0.78299235  0.09006424  0.76351292     0.01400
H3355       H  0.83890012  0.11150417  0.79928259     0.14400
H3356       H  0.74320265  0.08286980  0.78183536     0.14400
C3357       C  0.77323763  0.08294135  0.73636423     0.36100
C3358       C  0.81017373  0.11130987  0.84396720     0.36000
N3359       N  0.76531988  0.07724019  0.71463015    -0.44300
N3360       N  0.81893185  0.11734033  0.86527115    -0.44300
C3361       C  0.90131515  0.19234454  0.77505199    -0.00700
C3362       C  0.90684569  0.21951691  0.76638906    -0.12600
C3363       C  0.91424926  0.24006894  0.78525259     0.01600
C3364       C  0.91506555  0.23405824  0.81378177    -0.00800
C3365       C  0.91155856  0.20638567  0.82211550    -0.12500
C3366       C  0.90511383  0.18563218  0.80313376     0.01400
H3367       H  0.90543473  0.22478045  0.74463758     0.14400
H3368       H  0.91261868  0.20109202  0.84387878     0.14400
C3369       C  0.90113041  0.15798643  0.81330735     0.36100
C3370       C  0.92033910  0.26710983  0.77466534     0.36000
N3371       N  0.89806159  0.13579799  0.82146209    -0.44300
N3372       N  0.92570658  0.28858800  0.76589538    -0.44300
C3373       C  0.53519420  0.21595829  0.63538116    -0.00700
C3374       C  0.51880236  0.21955994  0.65879204    -0.12600
C3375       C  0.49017948  0.21816549  0.65732848     0.01600
C3376       C  0.47683267  0.21327833  0.63158797    -0.00800
C3377       C  0.49338659  0.20988127  0.60803896    -0.12500
C3378       C  0.52215465  0.21088629  0.60971999     0.01400
H3379       H  0.52844112  0.22359730  0.67851673     0.14400
H3380       H  0.48388963  0.20582646  0.58826571     0.14400
C3381       C  0.53767965  0.20533616  0.58489763     0.36100
C3382       C  0.47554620  0.22153043  0.68308707     0.36000
N3383       N  0.55005156  0.20075855  0.56499880    -0.44300
N3384       N  0.46414658  0.22407752  0.70392544    -0.44300
C3385       C  0.61813817  0.22213478  0.53273465    -0.00700
C3386       C  0.60472396  0.20192052  0.51729891    -0.12600
C3387       C  0.60661292  0.20165671  0.48853413     0.01600
C3388       C  0.62310794  0.22122392  0.47498215    -0.00800
C3389       C  0.63588613  0.24183468  0.49025382    -0.12500
C3390       C  0.63295147  0.24292000  0.51891884     0.01400
H3391       H  0.59364363  0.18566288  0.52783683     0.14400
H3392       H  0.64835431  0.25697105  0.47975162     0.14400
C3393       C  0.64658149  0.26466629  0.53361168     0.36100
C3394       C  0.59285377  0.18015732  0.47357837     0.36000
N3395       N  0.65728336  0.28237174  0.54517114    -0.44300
N3396       N  0.58175129  0.16293559  0.46166613    -0.44300
C3397       C  0.72681167  0.18728184  0.65392961    -0.00700
C3398       C  0.73312798  0.17840615  0.68096075    -0.12600
C3399       C  0.75986699  0.16958996  0.68810833     0.01600
C3400       C  0.78097800  0.16925585  0.66787888    -0.00800
C3401       C  0.77504585  0.18051813  0.64175876    -0.12500
C3402       C  0.74868021  0.18961859  0.63477778     0.01400
H3403       H  0.71687202  0.17680026  0.69613724     0.14400
H3404       H  0.79096527  0.18140680  0.62610473     0.14400
C3405       C  0.74467775  0.20036834  0.60721724     0.36100
C3406       C  0.76470007  0.16029141  0.71604104     0.36000
N3407       N  0.74166942  0.20879691  0.58503496    -0.44300
N3408       N  0.76862337  0.15305887  0.73850044    -0.44300
C3409       C  0.63964404  0.15774639  0.73762503    -0.00700
C3410       C  0.66662173  0.16566272  0.74409752    -0.12600
C3411       C  0.67724906  0.16196797  0.77050212     0.01600
C3412       C  0.66068212  0.15024507  0.79096418    -0.00800
C3413       C  0.63297488  0.14443857  0.78516831    -0.12500
C3414       C  0.62235809  0.14798345  0.75858820     0.01400
H3415       H  0.67965897  0.17445751  0.72823876     0.14400
H3416       H  0.61998523  0.13547722  0.80101024     0.14400
C3417       C  0.59460421  0.13963868  0.75307549     0.36100
C3418       C  0.70485947  0.17071545  0.77623826     0.36000
N3419       N  0.57234095  0.13273117  0.74900750    -0.44300
N3420       N  0.72685545  0.17793998  0.78112842    -0.44300
C3421       C  0.67562782  0.11237181  0.59471109    -0.00700
C3422       C  0.69459438  0.12148896  0.57514145    -0.12600
C3423       C  0.70235499  0.10506058  0.55298631     0.01600
C3424       C  0.69054914  0.07859824  0.54960520    -0.00800
C3425       C  0.67194280  0.06919621  0.56977314    -0.12500
C3426       C  0.66473932  0.08573926  0.59242742     0.01400
H3427       H  0.70268259  0.14219841  0.57664584     0.14400
H3428       H  0.66392196  0.04849661  0.56853932     0.14400
C3429       C  0.64753438  0.07438169  0.61379136     0.36100
C3430       C  0.72287240  0.11621856  0.53452629     0.36000
N3431       N  0.63457197  0.06449074  0.63119632    -0.44300
N3432       N  0.73959009  0.12521220  0.52013612    -0.44300
C3433       C  0.53319377  0.38109368  0.79482598    -0.00700
C3434       C  0.51857835  0.38356773  0.81996619    -0.12600
C3435       C  0.48984839  0.38322048  0.82081288     0.01600
C3436       C  0.47496479  0.37983529  0.79628131    -0.00800
C3437       C  0.48918534  0.37912529  0.77101118    -0.12500
C3438       C  0.51796100  0.38029066  0.77000083     0.01400
H3439       H  0.52959454  0.38499350  0.83931660     0.14400
H3440       H  0.47771483  0.37739219  0.75194316     0.14400
C3441       C  0.53107946  0.38046624  0.74324482     0.36100
C3442       C  0.47623300  0.38583262  0.84717117     0.36000
N3443       N  0.54153692  0.38091842  0.72175927    -0.44300
N3444       N  0.46563241  0.38826027  0.86843686    -0.44300
C3445       C  0.62265156  0.46057264  0.79633051    -0.00700
C3446       C  0.61787881  0.47592365  0.82051576    -0.12600
C3447       C  0.62200894  0.50460583  0.82131549     0.01600
C3448       C  0.63218256  0.51888547  0.79792602    -0.00800
C3449       C  0.63722450  0.50373449  0.77380836    -0.12500
C3450       C  0.63246691  0.47508881  0.77272072     0.01400
H3451       H  0.61077951  0.46546102  0.83900881     0.14400
H3452       H  0.64408662  0.51449375  0.75538765     0.14400
C3453       C  0.63842724  0.46127731  0.74707660     0.36100
C3454       C  0.61553968  0.51900728  0.84654029     0.36000
N3455       N  0.64320395  0.45052629  0.72632714    -0.44300
N3456       N  0.61028321  0.53041036  0.86682009    -0.44300
C3457       C  0.73616833  0.35663962  0.83403804    -0.00700
C3458       C  0.74778587  0.36932151  0.85703711    -0.12600
C3459       C  0.77610953  0.36926915  0.86086218     0.01600
C3460       C  0.79316771  0.35508748  0.84215074    -0.00800
C3461       C  0.78167715  0.34478006  0.81770172    -0.12500
C3462       C  0.75334419  0.34630989  0.81309056     0.01400
H3463       H  0.73457029  0.37871609  0.87246063     0.14400
H3464       H  0.79465504  0.33425597  0.80293095     0.14400
C3465       C  0.74232044  0.33600991  0.78755918     0.36100
C3466       C  0.78659393  0.38251787  0.88506788     0.36000
N3467       N  0.73346782  0.32801052  0.76697618    -0.44300
N3468       N  0.79392924  0.39395831  0.90450854    -0.44300
C3469       C  0.64721549  0.26416366  0.82863819    -0.00700
C3470       C  0.62605292  0.24626621  0.83759577    -0.12600
C3471       C  0.63134368  0.21873235  0.84582607     0.01600
C3472       C  0.65832878  0.20828564  0.84549135    -0.00800
C3473       C  0.67889451  0.22526529  0.83403615    -0.12500
C3474       C  0.67374292  0.25261629  0.82578686     0.01400
H3475       H  0.60528908  0.25408899  0.83938326     0.14400
H3476       H  0.69974694  0.21750266  0.83275984     0.14400
C3477       C  0.69667113  0.26843708  0.81586328     0.36100
C3478       C  0.60894508  0.20221476  0.85576568     0.36000
N3479       N  0.71537898  0.28073809  0.80802635    -0.44300
N3480       N  0.59075637  0.18901364  0.86336856    -0.44300
C3481       C  0.60557215  0.29007662  0.75310335    -0.00700
C3482       C  0.63077567  0.27581280  0.75141644    -0.12600
C3483       C  0.63647863  0.25767177  0.72957142     0.01600
C3484       C  0.61698048  0.25422131  0.70848310    -0.00800
C3485       C  0.59102157  0.26677997  0.71148189    -0.12500
C3486       C  0.58521106  0.28445981  0.73354553     0.01400
H3487       H  0.64682934  0.28042786  0.76608884     0.14400
H3488       H  0.57549541  0.26369209  0.69582960     0.14400
C3489       C  0.55926008  0.29877496  0.73417121     0.36100
C3490       C  0.66323130  0.24494185  0.72800017     0.36000
N3491       N  0.53854977  0.31043030  0.73479685    -0.44300
N3492       N  0.68472456  0.23484011  0.72672975    -0.44300
C3493       C  0.79635209  0.47267985  0.63265296    -0.00700
C3494       C  0.78627879  0.48723927  0.60959780    -0.12600
C3495       C  0.78398240  0.51608266  0.60964821     0.01600
C3496       C  0.79157252  0.53123961  0.63338960    -0.00800
C3497       C  0.80302738  0.51681979  0.65578898    -0.12500
C3498       C  0.80578530  0.48808512  0.65555680     0.01400
H3499       H  0.77927392  0.47602823  0.59166842     0.14400
H3500       H  0.80991125  0.52806964  0.67375401     0.14400
C3501       C  0.81861283  0.47526102  0.67922918     0.36100
C3502       C  0.77285469  0.52923518  0.58528562     0.36000
N3503       N  0.82896186  0.46517008  0.69825108    -0.44300
N3504       N  0.76405666  0.53971449  0.56568147    -0.44300
C3505       C  0.80014628  0.38900426  0.52939730    -0.00700
C3506       C  0.82457974  0.38271689  0.51512466    -0.12600
C3507       C  0.82613526  0.38373396  0.48592410     0.01600
C3508       C  0.80264407  0.39006348  0.46984939    -0.00800
C3509       C  0.77882063  0.39803560  0.48428136    -0.12500
C3510       C  0.77742071  0.39790541  0.51330058     0.01400
H3511       H  0.84262415  0.37678731  0.52679009     0.14400
H3512       H  0.76063477  0.40392824  0.47283015     0.14400
C3513       C  0.75191964  0.40678681  0.52564301     0.36100
C3514       C  0.85254192  0.37955167  0.47347104     0.36000
N3515       N  0.73143571  0.41402167  0.53535857    -0.44300
N3516       N  0.87428764  0.37707348  0.46434490    -0.44300
C3517       C  0.84629471  0.33386509  0.71594971    -0.00700
C3518       C  0.87199451  0.34215460  0.72544684    -0.12600
C3519       C  0.87968975  0.33856660  0.75323004     0.01600
C3520       C  0.86200852  0.32535262  0.77240701    -0.00800
C3521       C  0.83704284  0.31517697  0.76245900    -0.12500
C3522       C  0.82884496  0.31983424  0.73480400     0.01400
H3523       H  0.88537583  0.35349782  0.71159436     0.14400
H3524       H  0.82348798  0.30438361  0.77652334     0.14400
C3525       C  0.80205836  0.31066117  0.72647149     0.36100
C3526       C  0.90583302  0.34947263  0.76115532     0.36000
N3527       N  0.78052074  0.30340119  0.71988019    -0.44300
N3528       N  0.92714959  0.35846807  0.76596187    -0.44300
C3529       C  0.83704364  0.28082991  0.64403125    -0.00700
C3530       C  0.86378842  0.27191175  0.63754196    -0.12600
C3531       C  0.87115132  0.24393886  0.63913102     0.01600
C3532       C  0.85190507  0.22441320  0.64837823    -0.00800
C3533       C  0.82528280  0.23327265  0.65484246    -0.12500
C3534       C  0.81742429  0.26089626  0.65181043     0.01400
H3535       H  0.87879184  0.28671988  0.63039114     0.14400
H3536       H  0.81066171  0.21861933  0.66286100     0.14400
C3537       C  0.78913210  0.26805498  0.65706199     0.36100
C3538       C  0.89869470  0.23582815  0.63169781     0.36000
N3539       N  0.76633763  0.27351169  0.66094619    -0.44300
N3540       N  0.92073838  0.22941100  0.62552840    -0.44300
C3541       C  0.72705185  0.40240509  0.69203810    -0.00700
C3542       C  0.73587249  0.40970580  0.71866238    -0.12600
C3543       C  0.71797925  0.40885215  0.74130104     0.01600
C3544       C  0.69081347  0.40017653  0.73740565    -0.00800
C3545       C  0.68149807  0.39498605  0.71040532    -0.12500
C3546       C  0.69932075  0.39624319  0.68772066     0.01400
H3547       H  0.75727295  0.41456369  0.72202309     0.14400
H3548       H  0.66047089  0.38867203  0.70719453     0.14400
C3549       C  0.68931430  0.38870896  0.66077605     0.36100
C3550       C  0.72867643  0.41442276  0.76847236     0.36000
N3551       N  0.68133099  0.38266862  0.63916685    -0.44300
N3552       N  0.73730016  0.41885213  0.79023369    -0.44300
C3553       C  0.73164742  0.31501449  0.60069437    -0.00700
C3554       C  0.71560999  0.31179412  0.62447575    -0.12600
C3555       C  0.69783613  0.28962434  0.62765260     0.01600
C3556       C  0.69500149  0.26992797  0.60622426    -0.00800
C3557       C  0.71146789  0.27288490  0.58246823    -0.12500
C3558       C  0.72970082  0.29509078  0.57956952     0.01400
H3559       H  0.71750087  0.32640047  0.64124486     0.14400
H3560       H  0.70967158  0.25820272  0.56579777     0.14400
C3561       C  0.74532631  0.29745941  0.55431280     0.36100
C3562       C  0.68336325  0.28781666  0.65367191     0.36000
N3563       N  0.75779686  0.29939550  0.53403031    -0.44300
N3564       N  0.67196293  0.28681372  0.67463656    -0.44300
C3565       C  0.54476488  0.69897275  0.92751886    -0.00700
C3566       C  0.52869263  0.68118502  0.91170269    -0.12600
C3567       C  0.54051885  0.66624758  0.88996297     0.01600
C3568       C  0.56851193  0.66987894  0.88381930    -0.00800
C3569       C  0.58431586  0.68745296  0.90022293    -0.12500
C3570       C  0.57287506  0.70148193  0.92219953     0.01400
H3571       H  0.50714885  0.67869777  0.91661346     0.14400
H3572       H  0.60598021  0.69023512  0.89596685     0.14400
C3573       C  0.59078691  0.71751505  0.93946882     0.36100
C3574       C  0.52426970  0.64586296  0.87618335     0.36000
N3575       N  0.60566677  0.72980529  0.95321231    -0.44300
N3576       N  0.51106558  0.62905089  0.86602141    -0.44300
C3577       C  0.57372510  0.80222759  0.96422196    -0.00700
C3578       C  0.60099034  0.79817164  0.97272158    -0.12600
C3579       C  0.62284577  0.81273228  0.96073124     0.01600
C3580       C  0.61809854  0.83124620  0.93861167    -0.00800
C3581       C  0.59067947  0.83662436  0.93112829    -0.12500
C3582       C  0.56864625  0.82244846  0.94367640     0.01400
H3583       H  0.60545478  0.78275565  0.98824411     0.14400
H3584       H  0.58649910  0.85052149  0.91405355     0.14400
C3585       C  0.54142927  0.82725415  0.93311059     0.36100
C3586       C  0.65004174  0.80809681  0.97151592     0.36000
N3587       N  0.51974121  0.83128199  0.92433661    -0.44300
N3588       N  0.67172990  0.80450751  0.98047690    -0.44300
C3589       C  0.44052868  0.71400729  0.93027400    -0.00700
C3590       C  0.41460274  0.70239222  0.93446523    -0.12600
C3591       C  0.39967056  0.69141527  0.91242701     0.01600
C3592       C  0.41084960  0.69144681  0.88530081    -0.00800
C3593       C  0.43630863  0.70397338  0.88101176    -0.12500
C3594       C  0.45103076  0.71534195  0.90292317     0.01400
H3595       H  0.40579286  0.70208769  0.95506247     0.14400
H3596       H  0.44496836  0.70478831  0.86042411     0.14400
C3597       C  0.47614908  0.72944964  0.89613963     0.36100
C3598       C  0.37251140  0.68127718  0.91834956     0.36000
N3599       N  0.49608262  0.74087655  0.89025643    -0.44300
N3600       N  0.35071387  0.67331111  0.92321191    -0.44300
C3601       C  0.43945757  0.80310644  0.94319157    -0.00700
C3602       C  0.43643483  0.79785869  0.91495546    -0.12600
C3603       C  0.41213700  0.80396069  0.90113570     0.01600
C3604       C  0.38978439  0.81617613  0.91542816    -0.00800
C3605       C  0.39279785  0.82185495  0.94368353    -0.12500
C3606       C  0.41729269  0.81548572  0.95761448     0.01400
H3607       H  0.45292441  0.78803767  0.90354276     0.14400
H3608       H  0.37617344  0.83171854  0.95484864     0.14400
C3609       C  0.41904905  0.82235842  0.98649302     0.36100
C3610       C  0.41095774  0.79668019  0.87227943     0.36000
N3611       N  0.42027193  0.82802079  0.00962690    -0.44300
N3612       N  0.41043138  0.79094194  0.84912935    -0.44300
C3613       C  0.41469446  0.66052976  0.10774132    -0.00700
C3614       C  0.44228217  0.66678704  0.11185419    -0.12600
C3615       C  0.45666138  0.68363940  0.09343558     0.01600
C3616       C  0.44383252  0.69388225  0.06909100    -0.00800
C3617       C  0.41667822  0.68562896  0.06386459    -0.12500
C3618       C  0.40198058  0.66950671  0.08307057     0.01400
H3619       H  0.45223121  0.66015449  0.13079655     0.14400
H3620       H  0.40634468  0.69294436  0.04542452     0.14400
C3621       C  0.37389734  0.66262079  0.07704984     0.36100
C3622       C  0.48362248  0.69169901  0.10217520     0.36000
N3623       N  0.35140985  0.65707675  0.07214202    -0.44300
N3624       N  0.50465175  0.69796353  0.11099977    -0.44300
C3625       C  0.44750987  0.80334058  0.08104389    -0.00700
C3626       C  0.44025703  0.82981740  0.07148352    -0.12600
C3627       C  0.41454883  0.84155202  0.07802340     0.01600
C3628       C  0.39528569  0.82603938  0.09313858    -0.00800
C3629       C  0.40300558  0.80009431  0.10329991    -0.12500
C3630       C  0.42897858  0.78912215  0.09817907     0.01400
H3631       H  0.45400313  0.84061354  0.05759022     0.14400
H3632       H  0.38854996  0.78816332  0.11536188     0.14400
C3633       C  0.43545878  0.76241042  0.10961489     0.36100
C3634       C  0.40756571  0.86840697  0.06725430     0.36000
N3635       N  0.44030844  0.74119968  0.11940884    -0.44300
N3636       N  0.40187630  0.88990081  0.05855597    -0.44300
C3637       C  0.55577112  0.69396151  0.07571535    -0.00700
C3638       C  0.55952425  0.66536812  0.07280668    -0.12600
C3639       C  0.57844077  0.65087718  0.08940730     0.01600
C3640       C  0.59489486  0.66521038  0.10840596    -0.00800
C3641       C  0.59175395  0.69371412  0.11067007    -0.12500
C3642       C  0.57221326  0.70804400  0.09517757     0.01400
H3643       H  0.54735580  0.65425500  0.05789891     0.14400
H3644       H  0.60378169  0.70479685  0.12574131     0.14400
C3645       C  0.56971765  0.73722586  0.10019980     0.36100
C3646       C  0.58093086  0.62146170  0.08632475     0.36000
N3647       N  0.56776247  0.76050596  0.10473375    -0.44300
N3648       N  0.58294900  0.59788871  0.08368901    -0.44300
C3649       C  0.57848109  0.79332735  0.04662819    -0.00700
C3650       C  0.60464355  0.78099924  0.04394055    -0.12600
C3651       C  0.62798769  0.79249215  0.05547146     0.01600
C3652       C  0.62577679  0.81720628  0.07031515    -0.00800
C3653       C  0.59985189  0.83032950  0.07202218    -0.12500
C3654       C  0.57631958  0.81862077  0.06045885     0.01400
H3655       H  0.60701111  0.76151877  0.03334916     0.14400
H3656       H  0.59762322  0.84942630  0.08329318     0.14400
C3657       C  0.55025299  0.83223363  0.06443593     0.36100
C3658       C  0.65353321  0.77762480  0.05249452     0.36000
N3659       N  0.52935109  0.84312893  0.06767924    -0.44300
N3660       N  0.67388506  0.76553012  0.05007475    -0.44300
C3661       C  0.93166022  0.56107803  0.69081110    -0.00700
C3662       C  0.93332690  0.57780052  0.66686118    -0.12600
C3663       C  0.90943907  0.58609894  0.65185466     0.01600
C3664       C  0.88278533  0.57833675  0.66091471    -0.00800
C3665       C  0.88148660  0.56078356  0.68400624    -0.12500
C3666       C  0.90488551  0.55231158  0.69872187     0.01400
H3667       H  0.95331670  0.58441576  0.65974842     0.14400
H3668       H  0.86155692  0.55428797  0.69151154     0.14400
C3669       C  0.89977405  0.53546528  0.72281364     0.36100
C3670       C  0.91299156  0.60267417  0.62737463     0.36000
N3671       N  0.89457054  0.52192600  0.74181674    -0.44300
N3672       N  0.91607423  0.61549839  0.60742295    -0.44300
C3673       C  0.92985032  0.61860626  0.82921067    -0.00700
C3674       C  0.94281500  0.62231318  0.80357982    -0.12600
C3675       C  0.95015074  0.60008332  0.78674035     0.01600
C3676       C  0.94481708  0.57255184  0.79514689    -0.00800
C3677       C  0.93280690  0.56854526  0.82130661    -0.12500
C3678       C  0.92563812  0.59106851  0.83840829     0.01400
H3679       H  0.94636876  0.64300837  0.79593021     0.14400
H3680       H  0.92932352  0.54775572  0.82862395     0.14400
C3681       C  0.91395828  0.58504033  0.86516113     0.36100
C3682       C  0.96205430  0.60693513  0.76028501     0.36000
N3683       N  0.90488517  0.57995969  0.88669303    -0.44300
N3684       N  0.97157054  0.61361912  0.73941204    -0.44300
C3685       C  0.89212975  0.41895555  0.67135505    -0.00700
C3686       C  0.88862178  0.42538475  0.69936402    -0.12600
C3687       C  0.90714496  0.44210443  0.71335596     0.01600
C3688       C  0.92995339  0.45344572  0.69921361    -0.00800
C3689       C  0.93351591  0.44694968  0.67106407    -0.12500
C3690       C  0.91496885  0.42984183  0.65714489     0.01400
H3691       H  0.87144466  0.41677683  0.71069892     0.14400
H3692       H  0.95091972  0.45517870  0.65984427     0.14400
C3693       C  0.91947974  0.42442427  0.62819669     0.36100
C3694       C  0.90253953  0.44591165  0.74255635     0.36000
N3695       N  0.92310257  0.42008865  0.60498185    -0.44300
N3696       N  0.89849459  0.44861870  0.76594300    -0.44300
C3697       C  0.96517160  0.43723239  0.80288113    -0.00700
C3698       C  0.97603303  0.41047946  0.80127776    -0.12600
C3699       C  0.96196823  0.38799667  0.81202584     0.01600
C3700       C  0.93573988  0.39206880  0.82360466    -0.00800
C3701       C  0.92621289  0.41919044  0.82777071    -0.12500
C3702       C  0.94089276  0.44176970  0.81786932     0.01400
H3703       H  0.99464618  0.40685349  0.78971452     0.14400
H3704       H  0.90661441  0.42287083  0.83773469     0.14400
C3705       C  0.92915327  0.46889600  0.82104665     0.36100
C3706       C  0.97476661  0.36118149  0.81017151     0.36000
N3707       N  0.91946905  0.49049274  0.82377635    -0.44300
N3708       N  0.98512853  0.33976583  0.80865698    -0.44300
C3709       C  0.08214000  0.45350757  0.69476144    -0.00700
C3710       C  0.08259733  0.45106471  0.66572938    -0.12600
C3711       C  0.10495562  0.43824346  0.65197602     0.01600
C3712       C  0.12738758  0.42771651  0.66736074    -0.00800
C3713       C  0.12705526  0.43132475  0.69609904    -0.12500
C3714       C  0.10489220  0.44305866  0.70974799     0.01400
H3715       H  0.06563438  0.45924768  0.65378994     0.14400
H3716       H  0.14398792  0.42398982  0.70861149     0.14400
C3717       C  0.10640899  0.44375284  0.73954607     0.36100
C3718       C  0.10473784  0.43693213  0.62223305     0.36000
N3719       N  0.10743690  0.44555770  0.76332535    -0.44300
N3720       N  0.10467945  0.43610749  0.59834646    -0.44300
C3721       C  0.04915804  0.42387293  0.79815081    -0.00700
C3722       C  0.04874198  0.39699469  0.78729651    -0.12600
C3723       C  0.05889841  0.37405054  0.80189649     0.01600
C3724       C  0.07129233  0.37711169  0.82816978    -0.00800
C3725       C  0.07065847  0.40375347  0.83981936    -0.12500
C3726       C  0.05959019  0.42680439  0.82533757     0.01400
H3727       H  0.04035414  0.39361828  0.76688825     0.14400
H3728       H  0.07977327  0.40688636  0.85993918     0.14400
C3729       C  0.05973737  0.45317541  0.83882313     0.36100
C3730       C  0.05641411  0.34757874  0.78880627     0.36000
N3731       N  0.05973964  0.47422546  0.84988185    -0.44300
N3732       N  0.05415936  0.32651455  0.77806303    -0.44300
C3733       C  0.07293908  0.54224565  0.68673916    -0.00700
C3734       C  0.06666114  0.56247195  0.66696214    -0.12600
C3735       C  0.08759147  0.57693085  0.65323994     0.01600
C3736       C  0.11541717  0.56948507  0.65751865    -0.00800
C3737       C  0.12126171  0.54722658  0.67488235    -0.12500
C3738       C  0.10078410  0.53457942  0.69040018     0.01400
H3739       H  0.04555883  0.56917562  0.66453759     0.14400
H3740       H  0.14243918  0.54155856  0.67858406     0.14400
C3741       C  0.10997052  0.51659527  0.71226239     0.36100
C3742       C  0.07962513  0.60155815  0.63861073     0.36000
N3743       N  0.11850452  0.50337462  0.73022155    -0.44300
N3744       N  0.07179481  0.62138488  0.62787782    -0.44300
C3745       C  0.07992018  0.61348944  0.82409801    -0.00700
C3746       C  0.08639532  0.58532587  0.82416411    -0.12600
C3747       C  0.07114857  0.56643580  0.80895874     0.01600
C3748       C  0.04833044  0.57534199  0.79313821    -0.00800
C3749       C  0.04131573  0.60339753  0.79343562    -0.12500
C3750       C  0.05670801  0.62242280  0.80879388     0.01400
H3751       H  0.10415146  0.57799580  0.83550797     0.14400
H3752       H  0.02393926  0.61053214  0.78141207     0.14400
C3753       C  0.04886647  0.65103658  0.80719832     0.36100
C3754       C  0.08086861  0.53829767  0.80848869     0.36000
N3755       N  0.04235401  0.67390990  0.80564815    -0.44300
N3756       N  0.08884881  0.51584270  0.80801458    -0.44300
C3757       C  0.88077594  0.66822976  0.43871503    -0.00700
C3758       C  0.90792056  0.66027071  0.43264343    -0.12600
C3759       C  0.93062148  0.67514162  0.44281983     0.01600
C3760       C  0.92662894  0.69885032  0.45954866    -0.00800
C3761       C  0.89962598  0.70541417  0.46726440    -0.12500
C3762       C  0.87706423  0.69059295  0.45731031     0.01400
H3763       H  0.91149198  0.64345580  0.41842065     0.14400
H3764       H  0.89593138  0.72287226  0.48066811     0.14400
C3765       C  0.85019811  0.69979251  0.46597787     0.36100
C3766       C  0.95764193  0.66637104  0.43430067     0.36000
N3767       N  0.82872140  0.70723236  0.47298793    -0.44300
N3768       N  0.97927201  0.65923338  0.42745114    -0.44300
C3769       C  0.94153950  0.84109963  0.38147378    -0.00700
C3770       C  0.93610106  0.84893480  0.40894358    -0.12600
C3771       C  0.94642346  0.83349630  0.43137807     0.01600
C3772       C  0.96267906  0.80980683  0.42644632    -0.00800
C3773       C  0.97046899  0.80402243  0.39912023    -0.12500
C3774       C  0.96015199  0.81920841  0.37687009     0.01400
H3775       H  0.92198837  0.86576357  0.41295755     0.14400
H3776       H  0.98388047  0.78665521  0.39491580     0.14400
C3777       C  0.96781271  0.81045482  0.34949099     0.36100
C3778       C  0.93901794  0.84179627  0.45896505     0.36000
N3779       N  0.97411747  0.80268771  0.32784185    -0.44300
N3780       N  0.93332035  0.84878810  0.48106287    -0.44300
C3781       C  0.93698259  0.71279238  0.56438178    -0.00700
C3782       C  0.91106899  0.72048597  0.55400144    -0.12600
C3783       C  0.88698050  0.71000001  0.56531479     0.01600
C3784       C  0.88861265  0.69141391  0.58762755    -0.00800
C3785       C  0.91465196  0.68469788  0.59862805    -0.12500
C3786       C  0.93868657  0.69484931  0.58702446     0.01400
H3787       H  0.90952762  0.73481099  0.53681769     0.14400
H3788       H  0.91654280  0.67090852  0.61617383     0.14400
C3789       C  0.96465672  0.68534396  0.59781790     0.36100
C3790       C  0.86125154  0.71838521  0.55318163     0.36000
N3791       N  0.98545534  0.67756907  0.60632144    -0.44300
N3792       N  0.84072487  0.72521314  0.54332502    -0.44300
C3793       C  0.94026569  0.80540151  0.56373341    -0.00700
C3794       C  0.95353973  0.80320375  0.58962096    -0.12600
C3795       C  0.94353270  0.81655327  0.61344487     0.01600
C3796       C  0.92008078  0.83358637  0.61192271    -0.00800
C3797       C  0.90748703  0.83684037  0.58584956    -0.12500
C3798       C  0.91673295  0.82244818  0.56225378     0.01400
H3799       H  0.97142021  0.79006399  0.59165166     0.14400
H3800       H  0.88910883  0.84937977  0.58419925     0.14400
C3801       C  0.90077874  0.82465646  0.53731079     0.36100
C3802       C  0.95775355  0.81231671  0.63921775     0.36000
N3803       N  0.88753887  0.82621081  0.51757032    -0.44300
N3804       N  0.96911441  0.80881773  0.65989214    -0.44300
C3805       C  0.12441321  0.66568508  0.43376047    -0.00700
C3806       C  0.12926648  0.68752818  0.45206318    -0.12600
C3807       C  0.10785142  0.70381653  0.46268208     0.01600
C3808       C  0.08026284  0.69840550  0.45550402    -0.00800
C3809       C  0.07514152  0.67485073  0.43947892    -0.12500
C3810       C  0.09675672  0.65866850  0.42856116     0.01400
H3811       H  0.15023145  0.69310817  0.45676696     0.14400
H3812       H  0.05420864  0.66991161  0.43405516     0.14400
C3813       C  0.08971972  0.63630917  0.41054587     0.36100
C3814       C  0.11520095  0.72657265  0.48016212     0.36000
N3815       N  0.08350382  0.61838422  0.39629700    -0.44300
N3816       N  0.12130012  0.74488242  0.49398548    -0.44300
C3817       C  0.08714326  0.83226354  0.38613440    -0.00700
C3818       C  0.06219036  0.84414972  0.39414136    -0.12600
C3819       C  0.04511000  0.83046692  0.41296594     0.01600
C3820       C  0.05178964  0.80342219  0.42140131    -0.00800
C3821       C  0.07662338  0.79160359  0.41306076    -0.12500
C3822       C  0.09486314  0.80625823  0.39667933     0.01400
H3823       H  0.05674964  0.86455349  0.38675035     0.14400
H3824       H  0.08247334  0.77135361  0.42063442     0.14400
C3825       C  0.12170554  0.79445640  0.39191439     0.36100
C3826       C  0.02206415  0.84522916  0.42432425     0.36000
N3827       N  0.14335745  0.78513126  0.38878302    -0.44300
N3828       N  0.00428358  0.85800864  0.43365981    -0.44300
C3829       C  0.10871223  0.67070921  0.57631036    -0.00700
C3830       C  0.11258100  0.69880551  0.57268957    -0.12600
C3831       C  0.09364971  0.71476792  0.55847321     0.01600
C3832       C  0.07060618  0.70225760  0.54581672    -0.00800
C3833       C  0.06729118  0.67362800  0.54850520    -0.12500
C3834       C  0.08620683  0.65777388  0.56378569     0.01400
H3835       H  0.12988564  0.70871494  0.58246309     0.14400
H3836       H  0.05004287  0.66369359  0.53873392     0.14400
C3837       C  0.08282081  0.62837673  0.56540349     0.36100
C3838       C  0.09798868  0.74416605  0.55919208     0.36000
N3839       N  0.08019330  0.60475115  0.56644430    -0.44300
N3840       N  0.10183096  0.76760942  0.56004500    -0.44300
C3841       C  0.04452964  0.80521113  0.57157063    -0.00700
C3842       C  0.03615301  0.79864888  0.59867022    -0.12600
C3843       C  0.04941242  0.80949440  0.62177383     0.01600
C3844       C  0.07177537  0.82749999  0.61814475    -0.00800
C3845       C  0.07909094  0.83536361  0.59105078    -0.12500
C3846       C  0.06575699  0.82451134  0.56791082     0.01400
H3847       H  0.01991249  0.78384930  0.60191960     0.14400
H3848       H  0.09603148  0.84937178  0.58783026     0.14400
C3849       C  0.07592582  0.83183551  0.54083694     0.36100
C3850       C  0.04068330  0.80023084  0.64877279     0.36000
N3851       N  0.08425845  0.83767824  0.51919613    -0.44300
N3852       N  0.03363703  0.79276046  0.67037585    -0.44300
C3853       C  0.68339376  0.42296028  0.88389633    -0.00700
C3854       C  0.67921553  0.41199307  0.91055644    -0.12600
C3855       C  0.69186095  0.42364107  0.93377047     0.01600
C3856       C  0.70910446  0.44665831  0.93041447    -0.00800
C3857       C  0.71178103  0.45855662  0.90416063    -0.12500
C3858       C  0.69910246  0.44730372  0.88114263     0.01400
H3859       H  0.66718240  0.39347757  0.91316581     0.14400
H3860       H  0.72506391  0.47613286  0.90129946     0.14400
C3861       C  0.70426121  0.46054029  0.85485704     0.36100
C3862       C  0.68857097  0.41024881  0.96023928     0.36000
N3863       N  0.70863017  0.47085140  0.83371533    -0.44300
N3864       N  0.68596569  0.39946446  0.98144340    -0.44300
C3865       C  0.84980848  0.37867324  0.93251657    -0.00700
C3866       C  0.85525524  0.40632180  0.92515632    -0.12600
C3867       C  0.84042465  0.42859003  0.93721878     0.01600
C3868       C  0.81998342  0.42349432  0.95750146    -0.00800
C3869       C  0.81658918  0.39610549  0.96635252    -0.12500
C3870       C  0.83072055  0.37412737  0.95417106     0.01400
H3871       H  0.86932305  0.41045283  0.90828885     0.14400
H3872       H  0.80161686  0.39149152  0.98230852     0.14400
C3873       C  0.82254715  0.34690942  0.96263732     0.36100
C3874       C  0.84536176  0.45609659  0.92721033     0.36000
N3875       N  0.81461002  0.32560376  0.96956446    -0.44300
N3876       N  0.84934639  0.47818432  0.91919383    -0.44300
C3877       C  0.70045155  0.55035415  0.93648985    -0.00700
C3878       C  0.69994581  0.53852018  0.91001379    -0.12600
C3879       C  0.68260323  0.54855545  0.88893946     0.01600
C3880       C  0.66455747  0.57097144  0.89386630    -0.00800
C3881       C  0.66418597  0.58202772  0.92081532    -0.12500
C3882       C  0.68176492  0.57216990  0.94182186     0.01400
H3883       H  0.71420114  0.52211386  0.90522003     0.14400
H3884       H  0.65087509  0.59937605  0.92532299     0.14400
C3885       C  0.68028890  0.58520232  0.96855220     0.36100
C3886       C  0.68517160  0.53648330  0.86192981     0.36000
N3887       N  0.67918508  0.59561012  0.98998729    -0.44300
N3888       N  0.68720731  0.52724947  0.84004710    -0.44300
C3889       C  0.83581353  0.59561682  0.90520645    -0.00700
C3890       C  0.81639919  0.58071388  0.89010258    -0.12600
C3891       C  0.80158018  0.55940368  0.90221332     0.01600
C3892       C  0.80636395  0.55228429  0.93000875    -0.00800
C3893       C  0.82615634  0.56678597  0.94513029    -0.12500
C3894       C  0.84100727  0.58830666  0.93286571     0.01400
H3895       H  0.81193320  0.58646267  0.86892519     0.14400
H3896       H  0.82994298  0.56133233  0.96653948     0.14400
C3897       C  0.86201972  0.60185283  0.94857431     0.36100
C3898       C  0.78013549  0.54669594  0.88626115     0.36000
N3899       N  0.87907634  0.61260407  0.96099641    -0.44300
N3900       N  0.76286025  0.53668440  0.87351692    -0.44300
C3901       C  0.67580201  0.41525839  0.10965486    -0.00700
C3902       C  0.69734144  0.40135641  0.09634836    -0.12600
C3903       C  0.71722482  0.41562595  0.08152975     0.01600
C3904       C  0.71566445  0.44448073  0.07950478    -0.00800
C3905       C  0.69467255  0.45865111  0.09336377    -0.12500
C3906       C  0.67477800  0.44427097  0.10858750     0.01400
H3907       H  0.69897346  0.37912883  0.09791272     0.14400
H3908       H  0.69348676  0.48083617  0.09171472     0.14400
C3909       C  0.65293886  0.45956192  0.12169079     0.36100
C3910       C  0.73881534  0.39997095  0.06835862     0.36000
N3911       N  0.63537101  0.47187662  0.13204379    -0.44300
N3912       N  0.75593639  0.38691917  0.05815459    -0.44300
C3913       C  0.82313591  0.42540821  0.05158891    -0.00700
C3914       C  0.82043987  0.42211629  0.08011009    -0.12600
C3915       C  0.83506904  0.40161179  0.09423280     0.01600
C3916       C  0.84975034  0.38114475  0.07935667    -0.00800
C3917       C  0.85456485  0.38593808  0.05115922    -0.12500
C3918       C  0.84310281  0.40922712  0.03785427     0.01400
H3919       H  0.80714648  0.43600163  0.09152073     0.14400
H3920       H  0.86773307  0.37196696  0.03975310     0.14400
C3921       C  0.85594786  0.41876578  0.01289449     0.36100
C3922       C  0.83637794  0.40408799  0.12382597     0.36000
N3923       N  0.86823327  0.42673653  0.99405186    -0.44300
N3924       N  0.83756778  0.40767075  0.14741854    -0.44300
C3925       C  0.70760128  0.54877662  0.06615964    -0.00700
C3926       C  0.72028569  0.57263755  0.07629277    -0.12600
C3927       C  0.70707277  0.59058208  0.09502139     0.01600
C3928       C  0.68072377  0.58426562  0.10586440    -0.00800
C3929       C  0.66752199  0.56091819  0.09471807    -0.12500
C3930       C  0.68029906  0.54386901  0.07455965     0.01400
H3931       H  0.74091427  0.57740564  0.06942960     0.14400
H3932       H  0.64713227  0.55576912  0.10192219     0.14400
C3933       C  0.66522580  0.52114517  0.06328413     0.36100
C3934       C  0.72151791  0.61520492  0.10266943     0.36000
N3935       N  0.65310292  0.50300091  0.05405770    -0.44300
N3936       N  0.73326815  0.63506058  0.10808496    -0.44300
C3937       C  0.81986970  0.62133025  0.07037712    -0.00700
C3938       C  0.83136260  0.59517287  0.07562558    -0.12600
C3939       C  0.82329222  0.57197173  0.06103869     0.01600
C3940       C  0.80326681  0.57451393  0.04023751    -0.00800
C3941       C  0.79242086  0.60080276  0.03422257    -0.12500
C3942       C  0.80032317  0.62405782  0.04912834     0.01400
H3943       H  0.84634174  0.59244000  0.09192207     0.14400
H3944       H  0.77699610  0.60312721  0.01828379     0.14400
C3945       C  0.78786353  0.65010708  0.04203210     0.36100
C3946       C  0.83485412  0.54578522  0.06931530     0.36000
N3947       N  0.77770739  0.67078366  0.03583992    -0.44300
N3948       N  0.84420599  0.52494439  0.07623859    -0.44300
C3949       C  0.43083792  0.93697108  0.70430128    -0.00700
C3950       C  0.44460467  0.91138267  0.70379749    -0.12600
C3951       C  0.43383923  0.88890022  0.68994863     0.01600
C3952       C  0.40884704  0.89186501  0.67573168    -0.00800
C3953       C  0.39441020  0.91682071  0.67735809    -0.12500
C3954       C  0.40489702  0.93918703  0.69170203     0.01400
H3955       H  0.46405804  0.90872680  0.71425732     0.14400
H3956       H  0.37454823  0.91882017  0.66762764     0.14400
C3957       C  0.38814788  0.96362794  0.69289330     0.36100
C3958       C  0.44927442  0.86341986  0.69036473     0.36000
N3959       N  0.37361580  0.98248538  0.69330161    -0.44300
N3960       N  0.46161835  0.84302590  0.69093908    -0.44300
C3961       C  0.43829106  0.94121642  0.80200787    -0.00700
C3962       C  0.44340407  0.91757759  0.81797228    -0.12600
C3963       C  0.42253698  0.90476275  0.83351430     0.01600
C3964       C  0.39522520  0.91547007  0.83351116    -0.00800
C3965       C  0.39047904  0.93985735  0.81858657    -0.12500
C3966       C  0.41132434  0.95259200  0.80296052     0.01400
H3967       H  0.46376175  0.90851142  0.81777709     0.14400
H3968       H  0.36989361  0.94835141  0.81786499     0.14400
C3969       C  0.40343123  0.97636625  0.78683163     0.36100
C3970       C  0.42998997  0.87988971  0.84817296     0.36000
N3971       N  0.39644498  0.99535433  0.77413064    -0.44300
N3972       N  0.43635873  0.85995418  0.85969660    -0.44300
C3973       C  0.56216984  0.87346477  0.66514041    -0.00700
C3974       C  0.56932458  0.90025507  0.65691726    -0.12600
C3975       C  0.55775526  0.92355769  0.66971659     0.01600
C3976       C  0.53743985  0.92059097  0.69053447    -0.00800
C3977       C  0.52898639  0.89379921  0.69740443    -0.12500
C3978       C  0.54116913  0.87048946  0.68521772     0.01400
H3979       H  0.58585359  0.90308019  0.64215774     0.14400
H3980       H  0.51351527  0.89094240  0.71326666     0.14400
C3981       C  0.53236639  0.84374119  0.69462187     0.36100
C3982       C  0.56986875  0.94983580  0.66346700     0.36000
N3983       N  0.52537673  0.82237587  0.70245606    -0.44300
N3984       N  0.58031732  0.97061669  0.65870693    -0.44300
C3985       C  0.61683915  0.92778316  0.82095514    -0.00700
C3986       C  0.62316124  0.94590435  0.79927295    -0.12600
C3987       C  0.60269705  0.96039020  0.78515209     0.01600
C3988       C  0.57472182  0.95673201  0.79228338    -0.00800
C3989       C  0.56842593  0.94005493  0.81518559    -0.12500
C3990       C  0.58909092  0.92565144  0.82953438     0.01400
H3991       H  0.64430861  0.94848346  0.79285562     0.14400
H3992       H  0.54718651  0.93716886  0.82110564     0.14400
C3993       C  0.58090030  0.90809202  0.85219770     0.36100
C3994       C  0.61139981  0.97865668  0.76322895     0.36000
N3995       N  0.57425647  0.89414696  0.87044055    -0.44300
N3996       N  0.61880182  0.99314125  0.74572868    -0.44300
C3997       C  0.45323122  0.06633693  0.68825239    -0.00700
C3998       C  0.46748005  0.08879009  0.67709869    -0.12600
C3999       C  0.45359629  0.11246501  0.66799467     0.01600
C4000       C  0.42476961  0.11353672  0.66943260    -0.00800
C4001       C  0.41053709  0.09040317  0.67921373    -0.12500
C4002       C  0.42443596  0.06726724  0.68913143     0.01400
H4003       H  0.48957895  0.08836949  0.67684792     0.14400
H4004       H  0.38834476  0.09105016  0.68066609     0.14400
C4005       C  0.40874467  0.04672968  0.70363560     0.36100
C4006       C  0.46953033  0.13505150  0.65745660     0.36000
N4007       N  0.39581216  0.03106463  0.71599642    -0.44300
N4008       N  0.48302987  0.15270225  0.64909024    -0.44300
C4009       C  0.43438998  0.05508439  0.79373886    -0.00700
C4010       C  0.42523715  0.07945136  0.78109292    -0.12600
C4011       C  0.40543658  0.09623246  0.79367864     0.01600
C4012       C  0.39365947  0.08837656  0.81927461    -0.00800
C4013       C  0.40262518  0.06379729  0.83186923    -0.12500
C4014       C  0.42318784  0.04740622  0.81951735     0.01400
H4015       H  0.43349311  0.08531158  0.76107946     0.14400
H4016       H  0.39376277  0.05754415  0.85146204     0.14400
C4017       C  0.43201731  0.02252429  0.83324450     0.36100
C4018       C  0.39677955  0.12083528  0.77916797     0.36000
N4019       N  0.43918245  0.00258193  0.84425909    -0.44300
N4020       N  0.39007029  0.14049966  0.76736857    -0.44300
C4021       C  0.54520920  0.07396751  0.68145341    -0.00700
C4022       C  0.54118805  0.10122047  0.69008063    -0.12600
C4023       C  0.55430890  0.12314740  0.67714673     0.01600
C4024       C  0.57310523  0.11825126  0.65539689    -0.00800
C4025       C  0.57505343  0.09155780  0.64465427    -0.12500
C4026       C  0.56074240  0.06949905  0.65706325     0.01400
H4027       H  0.52834338  0.10549534  0.70790512     0.14400
H4028       H  0.58786700  0.08797915  0.62675212     0.14400
C4029       C  0.56246613  0.04288242  0.64426916     0.36100
C4030       C  0.54961851  0.15016760  0.68857981     0.36000
N4031       N  0.56353225  0.02190385  0.63315186    -0.44300
N4032       N  0.54557856  0.17153954  0.69822414    -0.44300
C4033       C  0.62266156  0.06790683  0.81814041    -0.00700
C4034       C  0.62360333  0.07070839  0.78937954    -0.12600
C4035       C  0.60351148  0.05903293  0.77293666     0.01600
C4036       C  0.58247447  0.04341678  0.78542359    -0.00800
C4037       C  0.58209900  0.03985297  0.81421558    -0.12500
C4038       C  0.60195579  0.05211826  0.83068941     0.01400
H4039       H  0.63946328  0.08310588  0.77979538     0.14400
H4040       H  0.56608951  0.02771720  0.82385915     0.14400
C4041       C  0.60098388  0.04776044  0.86020324     0.36100
C4042       C  0.60401229  0.06524331  0.74370394     0.36000
N4043       N  0.60020978  0.04420142  0.88384595    -0.44300
N4044       N  0.60448756  0.07052528  0.72037025    -0.44300
C4045       C  0.30197594  0.55722758  0.92326862    -0.00700
C4046       C  0.32529029  0.57392444  0.92684443    -0.12600
C4047       C  0.34127604  0.58314290  0.90400127     0.01600
C4048       C  0.33409298  0.57591208  0.87655957    -0.00800
C4049       C  0.31154334  0.55831678  0.87335042    -0.12500
C4050       C  0.29554622  0.54938398  0.89582976     0.01400
H4051       H  0.33099316  0.57999139  0.94755272     0.14400
H4052       H  0.30529832  0.55254611  0.85269061     0.14400
C4053       C  0.27124227  0.53398907  0.88931921     0.36100
C4054       C  0.36441549  0.60058916  0.90941054     0.36000
N4055       N  0.25179232  0.52194181  0.88333007    -0.44300
N4056       N  0.38313851  0.61432196  0.91395518    -0.44300
C4057       C  0.19363707  0.56001666  0.93753039    -0.00700
C4058       C  0.18939933  0.58232247  0.95573642    -0.12600
C4059       C  0.17413142  0.60590179  0.94822303     0.01600
C4060       C  0.16193853  0.60800186  0.92188030    -0.00800
C4061       C  0.16393055  0.58477748  0.90448106    -0.12500
C4062       C  0.17944161  0.56105568  0.91200950     0.01400
H4063       H  0.19896967  0.58195287  0.97586523     0.14400
H4064       H  0.15479815  0.58581698  0.88410928     0.14400
C4065       C  0.18109680  0.53860762  0.89270964     0.36100
C4066       C  0.17235697  0.62818407  0.96771796     0.36000
N4067       N  0.18221944  0.52054429  0.87725660    -0.44300
N4068       N  0.17122783  0.64574288  0.98372397    -0.44300
C4069       C  0.30597592  0.45870954  0.92068987    -0.00700
C4070       C  0.29703114  0.46222954  0.89331146    -0.12600
C4071       C  0.31156842  0.45107912  0.87091545     0.01600
C4072       C  0.33538810  0.43492111  0.87547426    -0.00800
C4073       C  0.34575119  0.43345098  0.90254132    -0.12500
C4074       C  0.33155646  0.44528680  0.92495688     0.01400
H4075       H  0.27803284  0.47309680  0.88928463     0.14400
H4076       H  0.36424734  0.42167070  0.90655744     0.14400
C4077       C  0.34337850  0.44211793  0.95208888     0.36100
C4078       C  0.30110123  0.45626139  0.84350369     0.36000
N4079       N  0.35310998  0.43964509  0.97373407    -0.44300
N4080       N  0.29262030  0.46056745  0.82160423    -0.44300
C4081       C  0.20027403  0.42235022  0.95969078    -0.00700
C4082       C  0.21056879  0.39532137  0.96256978    -0.12600
C4083       C  0.19703421  0.37244661  0.95170647     0.01600
C4084       C  0.17235471  0.37585943  0.93677381    -0.00800
C4085       C  0.16065575  0.40254086  0.93587906    -0.12500
C4086       C  0.17420195  0.42556922  0.94728679     0.01400
H4087       H  0.23010287  0.39191116  0.97258224     0.14400
H4088       H  0.14154669  0.40576937  0.92495279     0.14400
C4089       C  0.16137453  0.45226731  0.94489675     0.36100
C4090       C  0.20972963  0.34579190  0.95560799     0.36000
N4091       N  0.15100672  0.47367010  0.94312314    -0.44300
N4092       N  0.22012105  0.32455389  0.95873351    -0.44300
C4093       C  0.30834907  0.45608790  0.07570160    -0.00700
C4094       C  0.30586481  0.46828425  0.10198599    -0.12600
C4095       C  0.31824684  0.45644112  0.12546855     0.01600
C4096       C  0.33301875  0.43156300  0.12308706    -0.00800
C4097       C  0.33721097  0.42054708  0.09652882    -0.12500
C4098       C  0.32503762  0.43242064  0.07303759     0.01400
H4099       H  0.29356942  0.48678684  0.10431291     0.14400
H4100       H  0.34873443  0.40154109  0.09425083     0.14400
C4101       C  0.32798311  0.41834295  0.04700092     0.36100
C4102       C  0.31561844  0.47016954  0.15172596     0.36000
N4103       N  0.33026978  0.40686125  0.02623197    -0.44300
N4104       N  0.31367449  0.48114136  0.17280888    -0.44300
C4105       C  0.17237437  0.37864795  0.07363944    -0.00700
C4106       C  0.19623418  0.37216357  0.05868584    -0.12600
C4107       C  0.21163175  0.39240944  0.04495101     0.01600
C4108       C  0.20339398  0.42054907  0.04566339    -0.00800
C4109       C  0.17848105  0.42679956  0.05917394    -0.12500
C4110       C  0.16311217  0.40635549  0.07308031     0.01400
H4111       H  0.20355854  0.35104659  0.05848371     0.14400
H4112       H  0.17147894  0.44798333  0.05995369     0.14400
C4113       C  0.13891241  0.41486246  0.08804102     0.36100
C4114       C  0.23631138  0.38326284  0.03116255     0.36000
N4115       N  0.11954025  0.42176147  0.10005253    -0.44300
N4116       N  0.25608903  0.37561340  0.02033117    -0.44300
C4117       C  0.30752529  0.55324001  0.05790572    -0.00700
C4118       C  0.29501715  0.57805509  0.06584529    -0.12600
C4119       C  0.30620355  0.59477929  0.08640943     0.01600
C4120       C  0.33066886  0.58675526  0.10006169    -0.00800
C4121       C  0.34392404  0.56242533  0.09111704    -0.12500
C4122       C  0.33266580  0.54582607  0.07015364     0.01400
H4123       H  0.27552039  0.58384618  0.05672659     0.14400
H4124       H  0.36270104  0.55584005  0.10112602     0.14400
C4125       C  0.34650633  0.52069168  0.06252953     0.36100
C4126       C  0.29067000  0.61889189  0.09423475     0.36000
N4127       N  0.35771870  0.50060752  0.05631632    -0.44300
N4128       N  0.27781240  0.63806647  0.10011378    -0.44300
C4129       C  0.18319309  0.61716589  0.07309017    -0.00700
C4130       C  0.20134098  0.62360200  0.05150908    -0.12600
C4131       C  0.21339513  0.60300717  0.03527245     0.01600
C4132       C  0.20726488  0.57492360  0.04023350    -0.00800
C4133       C  0.18859811  0.56848768  0.06141148    -0.12500
C4134       C  0.17682481  0.58907706  0.07794540     0.01400
H4135       H  0.20636617  0.64492697  0.04733595     0.14400
H4136       H  0.18405723  0.54712292  0.06596390     0.14400
C4137       C  0.15953946  0.58033209  0.10060261     0.36100
C4138       C  0.23204627  0.61159262  0.01373191     0.36000
N4139       N  0.14583370  0.57305918  0.11874783    -0.44300
N4140       N  0.24696989  0.61857496  0.99648745    -0.44300
C4141       C  0.43655202  0.32645481  0.87267953    -0.00700
C4142       C  0.45469063  0.30463035  0.86754271    -0.12600
C4143       C  0.46888286  0.29146519  0.88912625     0.01600
C4144       C  0.46552042  0.30040366  0.91693718    -0.00800
C4145       C  0.44803668  0.32289369  0.92185665    -0.12500
C4146       C  0.43322830  0.33546988  0.90035555     0.01400
H4147       H  0.45728086  0.29729363  0.84656157     0.14400
H4148       H  0.44449516  0.32964818  0.94288868     0.14400
C4149       C  0.41289366  0.35580912  0.90791223     0.36100
C4150       C  0.48580074  0.26811163  0.88182883     0.36000
N4151       N  0.39636622  0.37180680  0.91411098    -0.44300
N4152       N  0.49902284  0.24921587  0.87581662    -0.44300
C4153       C  0.38653497  0.17071586  0.91701606    -0.00700
C4154       C  0.38713776  0.19959360  0.91682939    -0.12600
C4155       C  0.40845777  0.21454002  0.92863529     0.01600
C4156       C  0.43070865  0.20095439  0.94205279    -0.00800
C4157       C  0.43105530  0.17183349  0.94116139    -0.12500
C4158       C  0.40941433  0.15675802  0.92858926     0.01400
H4159       H  0.37061996  0.21098959  0.90699126     0.14400
H4160       H  0.44789788  0.16078602  0.95074284     0.14400
C4161       C  0.41085649  0.12714899  0.92842071     0.36100
C4162       C  0.40654980  0.24413592  0.92589396     0.36000
N4163       N  0.41207971  0.10337230  0.92816921    -0.44300
N4164       N  0.40457772  0.26777156  0.92359999    -0.44300
C4165       C  0.57481496  0.29713864  0.94500531    -0.00700
C4166       C  0.60164548  0.28910862  0.93813268    -0.12600
C4167       C  0.61664263  0.30305440  0.91759659     0.01600
C4168       C  0.60494390  0.32609022  0.90375598    -0.00800
C4169       C  0.57870875  0.33507385  0.91214307    -0.12500
C4170       C  0.56364163  0.32079846  0.93231037     0.01400
H4171       H  0.61042581  0.27095294  0.94785337     0.14400
H4172       H  0.56939056  0.35282808  0.90220551     0.14400
C4173       C  0.53688897  0.33113550  0.93984999     0.36100
C4174       C  0.64318287  0.29202094  0.91016337     0.36000
N4175       N  0.51560185  0.33983374  0.94590539    -0.44300
N4176       N  0.66436992  0.28300667  0.90417004    -0.44300
C4177       C  0.56986869  0.19517369  0.94298848    -0.00700
C4178       C  0.59578581  0.20262396  0.95302936    -0.12600
C4179       C  0.61958553  0.18774083  0.94637237     0.01600
C4180       C  0.61807493  0.16406995  0.92939867    -0.00800
C4181       C  0.59179091  0.15589430  0.92037096    -0.12500
C4182       C  0.56797331  0.17130515  0.92671569     0.01400
H4183       H  0.59765294  0.22087071  0.96568915     0.14400
H4184       H  0.58985025  0.13806048  0.90718511     0.14400
C4185       C  0.54188495  0.16210172  0.91646952     0.36100
C4186       C  0.64523642  0.19815747  0.95669829     0.36000
N4187       N  0.52093257  0.15473962  0.90828343    -0.44300
N4188       N  0.66571209  0.20678230  0.96486081    -0.44300
C4189       C  0.56839105  0.32803232  0.11648475    -0.00700
C4190       C  0.56874743  0.33872826  0.08927374    -0.12600
C4191       C  0.55493268  0.32536864  0.06723757     0.01600
C4192       C  0.53975244  0.30089656  0.07212809    -0.00800
C4193       C  0.53789536  0.29163992  0.09957097    -0.12500
C4194       C  0.55211254  0.30421560  0.12117352     0.01400
H4195       H  0.58101831  0.35673766  0.08483236     0.14400
H4196       H  0.52621417  0.27327229  0.10425326     0.14400
C4197       C  0.55083060  0.29032857  0.14753794     0.36100
C4198       C  0.55768986  0.33667843  0.03976478     0.36000
N4199       N  0.55018586  0.27823563  0.16815067    -0.44300
N4200       N  0.55993960  0.34576142  0.01773226    -0.44300
C4201       C  0.60809603  0.16936788  0.07884142    -0.00700
C4202       C  0.58180763  0.17192772  0.09037935    -0.12600
C4203       C  0.56027504  0.18376320  0.07516999     0.01600
C4204       C  0.56516928  0.19391396  0.04823432    -0.00800
C4205       C  0.59126474  0.19087964  0.03653799    -0.12500
C4206       C  0.61257876  0.17846564  0.05134280     0.01400
H4207       H  0.57818329  0.16497957  0.11139177     0.14400
H4208       H  0.59521697  0.19903512  0.01601822     0.14400
C4209       C  0.63924981  0.17703579  0.03832830     0.36100
C4210       C  0.53382441  0.18678716  0.08823521     0.36000
N4211       N  0.66057157  0.17586613  0.02785669    -0.44300
N4212       N  0.51259213  0.18912823  0.09867754    -0.44300
C4213       C  0.42750265  0.32475657  0.12172846    -0.00700
C4214       C  0.43890976  0.29852957  0.12431945     0.35400
C4215       C  0.45192160  0.28574233  0.10213857     0.01600
C4216       C  0.45359256  0.29911302  0.07575685    -0.00800
C4217       C  0.44471343  0.32652681  0.07391212    -0.12500
C4218       C  0.43212197  0.33956487  0.09665091     0.01400
H4219       H  0.43658649  0.28722658  0.14356550     0.14400
H4220       H  0.44665660  0.33748914  0.05445251     0.14400
C4221       C  0.42386059  0.36794581  0.09326471     0.36100
C4222       C  0.46189539  0.25813892  0.10746834     0.36000
N4223       N  0.41746844  0.39076458  0.09058007    -0.44300
N4224       N  0.46943784  0.23594048  0.11186980    -0.44300
C4225       C  0.37030031  0.17897692  0.06783681    -0.00700
C4226       C  0.36516858  0.20016222  0.04870225    -0.12600
C4227       C  0.38653387  0.21215416  0.03331689     0.01600
C4228       C  0.41404240  0.20297872  0.03682187    -0.00800
C4229       C  0.41896513  0.18112266  0.05511935    -0.12500
C4230       C  0.39776941  0.16931100  0.07064637     0.01400
H4231       H  0.34439145  0.20767492  0.04592529     0.14400
H4232       H  0.43980345  0.17398195  0.05841715     0.14400
C4233       C  0.40558662  0.14810829  0.09014524     0.36100
C4234       C  0.37940766  0.23404755  0.01433138     0.36000
N4235       N  0.41215311  0.13119614  0.10571504    -0.44300
N4236       N  0.37361903  0.25165910  0.99923122    -0.44300
C4237       C  0.87608434  0.31451650  0.56783582    -0.00700
C4238       C  0.90112353  0.32799268  0.56403094    -0.12600
C4239       C  0.92372369  0.31441744  0.55253395     0.01600
C4240       C  0.92151613  0.28653390  0.54444582    -0.00800
C4241       C  0.89623266  0.27321856  0.54793253    -0.12500
C4242       C  0.87369031  0.28678426  0.55953922     0.01400
H4243       H  0.90321122  0.34922200  0.57046839     0.14400
H4244       H  0.89417119  0.25176114  0.54235836     0.14400
C4245       C  0.84905471  0.27105259  0.56425758     0.36100
C4246       C  0.94893549  0.32966159  0.55019110     0.36000
N4247       N  0.82940594  0.25836998  0.56814117    -0.44300
N4248       N  0.96911211  0.34194669  0.54847440    -0.44300
C4249       C  0.96095315  0.18198312  0.57201605    -0.00700
C4250       C  0.97185679  0.18249307  0.59868600    -0.12600
C4251       C  0.95898472  0.16924028  0.62075855     0.01600
C4252       C  0.93402613  0.15561860  0.61649728    -0.00800
C4253       C  0.92418463  0.15299114  0.58930419    -0.12500
C4254       C  0.93724324  0.16633418  0.56712951     0.01400
H4255       H  0.98900218  0.19479619  0.60259240     0.14400
H4256       H  0.90478394  0.14297109  0.58572273     0.14400
C4257       C  0.92368877  0.16677078  0.54066793     0.36100
C4258       C  0.97126237  0.17169741  0.64769581     0.36000
N4259       N  0.91242402  0.16728224  0.51967027    -0.44300
N4260       N  0.98173697  0.17421575  0.66891410    -0.44300
C4261       C  0.92407167  0.29202976  0.46105152    -0.00700
C4262       C  0.92818720  0.31719606  0.44758640    -0.12600
C4263       C  0.90669452  0.33070351  0.43373549     0.01600
C4264       C  0.87995440  0.31898724  0.43295044    -0.00800
C4265       C  0.87562177  0.29443346  0.44747164    -0.12500
C4266       C  0.89705256  0.28103553  0.46144967     0.01400
H4267       H  0.94849807  0.32613986  0.44727788     0.14400
H4268       H  0.85544485  0.28519767  0.44741962     0.14400
C4269       C  0.89031596  0.25578524  0.47570278     0.36100
C4270       C  0.91289163  0.35725931  0.42189838     0.36000
N4271       N  0.88467967  0.23551916  0.48693888    -0.44300
N4272       N  0.91815559  0.37896760  0.41362922    -0.44300
C4273       C  0.92386142  0.17984854  0.38045960    -0.00700
C4274       C  0.94281609  0.16248034  0.39405306    -0.12600
C4275       C  0.95986548  0.17249395  0.41513194     0.01600
C4276       C  0.95803575  0.20033345  0.42290562    -0.00800
C4277       C  0.93937870  0.21762391  0.40896542    -0.12500
C4278       C  0.92236600  0.20776756  0.38818239     0.01400
H4279       H  0.94428092  0.14101312  0.38822179     0.14400
H4280       H  0.93734572  0.23902353  0.41496328     0.14400
C4281       C  0.90240083  0.22657871  0.37659633     0.36100
C4282       C  0.97942607  0.15409483  0.42785345     0.36000
N4283       N  0.88646164  0.24189633  0.36766386    -0.44300
N4284       N  0.99516109  0.13928033  0.43792848    -0.44300
C4285       C  0.07766755  0.30184413  0.46365129    -0.00700
C4286       C  0.10541184  0.29366758  0.46486386    -0.12600
C4287       C  0.12633906  0.30839079  0.45123480     0.01600
C4288       C  0.12016368  0.33240862  0.43558413    -0.00800
C4289       C  0.09249672  0.34117220  0.43513172    -0.12500
C4290       C  0.07151697  0.32639238  0.44890400     0.01400
H4291       H  0.11084848  0.27491563  0.47581388     0.14400
H4292       H  0.08696149  0.35918153  0.42304040     0.14400
C4293       C  0.04366569  0.33615500  0.44615449     0.36100
C4294       C  0.15366916  0.29690822  0.45216779     0.36000
N4295       N  0.02128479  0.34385402  0.44400771    -0.44300
N4296       N  0.17549460  0.28750396  0.45284286    -0.44300
C4297       C  0.06315998  0.16592491  0.38102906    -0.00700
C4298       C  0.04711422  0.18962744  0.37710136    -0.12600
C4299       C  0.03697230  0.20460769  0.39948076     0.01600
C4300       C  0.04247877  0.19572259  0.42689306    -0.00800
C4301       C  0.05602382  0.17042726  0.43077711    -0.12500
C4302       C  0.06642815  0.15555253  0.40821318     0.01400
H4303       H  0.04387205  0.19752013  0.35634901     0.14400
H4304       H  0.05993052  0.16298633  0.45155579     0.14400
C4305       C  0.08209388  0.13095012  0.41392933     0.36100
C4306       C  0.02205117  0.22964089  0.39327783     0.36000
N4307       N  0.09458591  0.11121539  0.41871624    -0.44300
N4308       N  0.01030355  0.24976082  0.38812461    -0.44300
C4309       C  0.06917817  0.30094062  0.55223965    -0.00700
C4310       C  0.09646599  0.30084786  0.54318663    -0.12600
C4311       C  0.11675814  0.31554203  0.55712624     0.01600
C4312       C  0.11005518  0.33060749  0.58127473    -0.00800
C4313       C  0.08230469  0.33189106  0.58938537    -0.12500
C4314       C  0.06197815  0.31730355  0.57520486     0.01400
H4315       H  0.10220195  0.28831095  0.52561326     0.14400
H4316       H  0.07655614  0.34326574  0.60774391     0.14400
C4317       C  0.03444905  0.31756569  0.58623017     0.36100
C4318       C  0.14437178  0.31297767  0.54678895     0.36000
N4319       N  0.01245079  0.31770700  0.59522104    -0.44300
N4320       N  0.16624303  0.31032126  0.53791396    -0.44300
C4321       C  0.04288573  0.19241937  0.58338836    -0.00700
C4322       C  0.05543762  0.16676462  0.57870932    -0.12600
C4323       C  0.06713779  0.15142744  0.60053233     0.01600
C4324       C  0.06519017  0.16093914  0.62813278    -0.00800
C4325       C  0.05072026  0.18544632  0.63293227    -0.12500
C4326       C  0.04062020  0.20158337  0.61123247     0.01400
H4327       H  0.05770560  0.15942459  0.55770550     0.14400
H4328       H  0.04882299  0.19312145  0.65387472     0.14400
C4329       C  0.02806234  0.22753100  0.61877099     0.36100
C4330       C  0.08347976  0.12779976  0.59328798     0.36000
N4331       N  0.01778251  0.24809271  0.62503990    -0.44300
N4332       N  0.09694591  0.10929258  0.58678279    -0.44300
C4333       C  0.30283577  0.93069240  0.44683966    -0.00700
C4334       C  0.29987150  0.90259412  0.45308683    -0.12600
C4335       C  0.31568752  0.88261422  0.43964115     0.01600
C4336       C  0.33391679  0.89057535  0.41834905    -0.00800
C4337       C  0.33715151  0.91875609  0.41256771    -0.12500
C4338       C  0.32210793  0.93876971  0.42667129     0.01400
H4339       H  0.28537195  0.89624906  0.46888005     0.14400
H4340       H  0.35071703  0.92526214  0.39611319     0.14400
C4341       C  0.32609841  0.96724454  0.41908736     0.36100
C4342       C  0.31188616  0.85424466  0.44761844     0.36000
N4343       N  0.32943257  0.99003568  0.41300729    -0.44300
N4344       N  0.30880602  0.83163061  0.45445160    -0.44300
C4345       C  0.19663460  0.96075852  0.42095780    -0.00700
C4346       C  0.20470564  0.96615912  0.39356845    -0.12600
C4347       C  0.19192371  0.95358533  0.37107034     0.01600
C4348       C  0.17052397  0.93443474  0.37538856    -0.00800
C4349       C  0.16065424  0.93088946  0.40253311    -0.12500
C4350       C  0.17331661  0.94391154  0.42517015     0.01400
H4351       H  0.22197279  0.97954069  0.38959438     0.14400
H4352       H  0.14406586  0.91661150  0.40634788     0.14400
C4353       C  0.16271600  0.93834933  0.45245798     0.36100
C4354       C  0.20205631  0.96024858  0.34379752     0.36000
N4355       N  0.15398678  0.93394800  0.47427508    -0.44300
N4356       N  0.21051100  0.96570934  0.32211315    -0.44300
C4357       C  0.30840595  0.92364987  0.53679075    -0.00700
C4358       C  0.30743603  0.92024960  0.56540656    -0.12600
C4359       C  0.32491436  0.90159352  0.57889171     0.01600
C4360       C  0.34015164  0.88176670  0.56373551    -0.00800
C4361       C  0.34261251  0.88625255  0.53516620    -0.12500
C4362       C  0.32921819  0.90893941  0.52239269     0.01400
H4363       H  0.29445762  0.93383916  0.57752689     0.14400
H4364       H  0.35623445  0.87319009  0.52323129     0.14400
C4365       C  0.34181167  0.92010517  0.49800324     0.36100
C4366       C  0.33051978  0.90732866  0.60735756     0.36000
N4367       N  0.35407070  0.92928013  0.47970277    -0.44300
N4368       N  0.33525719  0.91388814  0.62974477    -0.44300
C4369       C  0.20048646  0.94973448  0.57244198    -0.00700
C4370       C  0.20046193  0.96015666  0.59944230    -0.12600
C4371       C  0.18400162  0.94855772  0.62052718     0.01600
C4372       C  0.16636409  0.92608597  0.61496483    -0.00800
C4373       C  0.16650081  0.91584004  0.58764230    -0.12500
C4374       C  0.18350744  0.92699146  0.56683178     0.01400
H4375       H  0.21380761  0.97721018  0.60427006     0.14400
H4376       H  0.15444169  0.89786248  0.58273758     0.14400
C4377       C  0.18528467  0.91294947  0.54063278     0.36100
C4378       C  0.18713591  0.95939441  0.64792269     0.36000
N4379       N  0.18728597  0.90152519  0.51979605    -0.44300
N4380       N  0.19046341  0.96825240  0.66975878    -0.44300
C4381       C  0.33674609  0.11386542  0.56563084    -0.00700
C4382       C  0.34166687  0.08588093  0.57207534    -0.12600
C4383       C  0.32583476  0.06475219  0.56058089     0.01600
C4384       C  0.30460753  0.07123032  0.54178525    -0.00800
C4385       C  0.30065880  0.09883197  0.53414629    -0.12500
C4386       C  0.31636764  0.11996318  0.54571815     0.01400
H4387       H  0.35683392  0.08047315  0.58753101     0.14400
H4388       H  0.28453189  0.10406182  0.51964809     0.14400
C4389       C  0.30946115  0.14778265  0.53810664     0.36100
C4390       C  0.33020462  0.03691045  0.57034901     0.36000
N4391       N  0.30347755  0.17001621  0.53198467    -0.44300
N4392       N  0.33345581  0.01459306  0.57818190    -0.44300
C4393       C  0.17298646  0.05987027  0.62794610    -0.00700
C4394       C  0.20099559  0.05307664  0.62962581    -0.12600
C4395       C  0.21529858  0.04077452  0.60761532     0.01600
C4396       C  0.20207578  0.03566265  0.58193879    -0.00800
C4397       C  0.17355276  0.04041755  0.58091492    -0.12500
C4398       C  0.15895980  0.05152832  0.60375616     0.01400
H4399       H  0.21224193  0.05796905  0.64823664     0.14400
H4400       H  0.16250102  0.03532615  0.56225623     0.14400
C4401       C  0.12951714  0.05258534  0.60227497     0.36100
C4402       C  0.24378292  0.03405767  0.61243526     0.36000
N4403       N  0.10584264  0.05237633  0.60124896    -0.44300
N4404       N  0.26651041  0.02849311  0.61650736    -0.44300
C4405       C  0.29777486  0.08159142  0.45907317    -0.00700
C4406       C  0.32593703  0.07886996  0.45297650    -0.12600
C4407       C  0.34087602  0.10057727  0.44061196     0.01600
C4408       C  0.32746738  0.12541479  0.43300211    -0.00800
C4409       C  0.30013921  0.12893933  0.44158731    -0.12500
C4410       C  0.28539863  0.10775961  0.45439622     0.01400
H4411       H  0.33631519  0.05961439  0.45755081     0.14400
H4412       H  0.28952794  0.14810111  0.43708364     0.14400
C4413       C  0.25714477  0.11367560  0.46125041     0.36100
C4414       C  0.36997372  0.09699829  0.43677056     0.36000
N4415       N  0.23454096  0.11861050  0.46667709    -0.44300
N4416       N  0.39343544  0.09430401  0.43443215    -0.44300
C4417       C  0.19513125  0.04308177  0.42310795    -0.00700
C4418       C  0.20584218  0.04026526  0.39605275    -0.12600
C4419       C  0.19284433  0.05175335  0.37277338     0.01600
C4420       C  0.16821366  0.06680879  0.37572256    -0.00800
C4421       C  0.15638581  0.06806054  0.40242125    -0.12500
C4422       C  0.16951663  0.05653892  0.42588759     0.01400
H4423       H  0.22519775  0.02967159  0.39295958     0.14400
H4424       H  0.13746319  0.07939229  0.40530910     0.14400
C4425       C  0.15699656  0.06032328  0.45263171     0.36100
C4426       C  0.20559429  0.04803509  0.34608295     0.36000
N4427       N  0.14693247  0.06341120  0.47407885    -0.44300
N4428       N  0.21577846  0.04508123  0.32467445    -0.44300
C4429       C  0.58122457  0.88833727  0.31722728    -0.00700
C4430       C  0.59906327  0.91086238  0.31401018    -0.12600
C4431       C  0.58970198  0.93633320  0.30400870     0.01600
C4432       C  0.56176617  0.93979610  0.29757659    -0.00800
C4433       C  0.54362492  0.91798391  0.30368830    -0.12500
C4434       C  0.55308645  0.89234153  0.31275749     0.01400
H4435       H  0.62073980  0.90825598  0.31822900     0.14400
H4436       H  0.52188760  0.92038416  0.30000064     0.14400
C4437       C  0.53351813  0.87051790  0.31682847     0.36100
C4438       C  0.60946741  0.95782303  0.29940936     0.36000
N4439       N  0.51780235  0.85299924  0.31966356    -0.44300
N4440       N  0.62551666  0.97490596  0.29581493    -0.44300
C4441       C  0.57119731  0.94000814  0.19890953    -0.00700
C4442       C  0.56971127  0.91586710  0.18317180    -0.12600
C4443       C  0.59292934  0.90534687  0.16935072     0.01600
C4444       C  0.61846092  0.91918706  0.17087790    -0.00800
C4445       C  0.62008161  0.94292541  0.18676837    -0.12500
C4446       C  0.59710554  0.95340756  0.20064878     0.01400
H4447       H  0.55046019  0.90492786  0.18192922     0.14400
H4448       H  0.63964433  0.95321448  0.18869383     0.14400
C4449       C  0.60179839  0.97742895  0.21731926     0.36100
C4450       C  0.59030217  0.87929832  0.15534718     0.36000
N4451       N  0.60662438  0.99663062  0.23041806    -0.44300
N4452       N  0.58816987  0.85833311  0.14434752    -0.44300
C4453       C  0.46075767  0.92484593  0.29775898    -0.00700
C4454       C  0.44451769  0.93144671  0.32101887    -0.12600
C4455       C  0.43106674  0.91092320  0.33660697     0.01600
C4456       C  0.43358267  0.88300270  0.32905275    -0.00800
C4457       C  0.45191927  0.87633371  0.30755219    -0.12500
C4458       C  0.46530494  0.89664376  0.29198967     0.01400
H4459       H  0.44121093  0.95283903  0.32637045     0.14400
H4460       H  0.45486044  0.85493788  0.30191538     0.14400
C4461       C  0.48310861  0.88760544  0.26989258     0.36100
C4462       C  0.41391281  0.91934622  0.35932402     0.36000
N4463       N  0.49750558  0.88019250  0.25237108    -0.44300
N4464       N  0.40054714  0.92644349  0.37774470    -0.44300
C4465       C  0.43918142  0.94532851  0.19029419    -0.00700
C4466       C  0.43264161  0.92008603  0.20234098    -0.12600
C4467       C  0.41218286  0.90361790  0.19149689     0.01600
C4468       C  0.39710392  0.91270032  0.16794224    -0.00800
C4469       C  0.40523178  0.93712869  0.15457668    -0.12500
C4470       C  0.42646827  0.95328940  0.16542457     0.01400
H4471       H  0.44277523  0.91377526  0.22130792     0.14400
H4472       H  0.39461287  0.94394108  0.13611333     0.14400
C4473       C  0.43440961  0.97809509  0.15118170     0.36100
C4474       C  0.40649203  0.87838227  0.20642729     0.36000
N4475       N  0.44095837  0.99781459  0.13949059    -0.44300
N4476       N  0.40214019  0.85825972  0.21851799    -0.44300
C4477       C  0.43142607  0.12179828  0.32669327    -0.00700
C4478       C  0.44820148  0.12736972  0.30375267    -0.12600
C4479       C  0.45938695  0.10619428  0.28767411     0.01600
C4480       C  0.45432501  0.07828120  0.29462940    -0.00800
C4481       C  0.43952875  0.07269628  0.31896252    -0.12500
C4482       C  0.42782995  0.09399098  0.33472385     0.01400
H4483       H  0.45144442  0.14854347  0.29740578     0.14400
H4484       H  0.43551762  0.05153220  0.32480433     0.14400
C4485       C  0.41014338  0.08630591  0.35732549     0.36100
C4486       C  0.47496482  0.11416844  0.26355340     0.36000
N4487       N  0.39577985  0.07967145  0.37515747    -0.44300
N4488       N  0.48713501  0.12095718  0.24415856    -0.44300
C4489       C  0.42031321  0.04200544  0.18805062    -0.00700
C4490       C  0.39633978  0.02670303  0.18400271    -0.12600
C4491       C  0.37403837  0.03774863  0.16919318     0.01600
C4492       C  0.37530020  0.06478073  0.15842181    -0.00800
C4493       C  0.39973970  0.07964923  0.16176398    -0.12500
C4494       C  0.42196862  0.06866215  0.17655145     0.01400
H4495       H  0.39486299  0.00622614  0.19286038     0.14400
H4496       H  0.40078919  0.10076872  0.15455534     0.14400
C4497       C  0.44512105  0.08618588  0.18204928     0.36100
C4498       C  0.35002250  0.02103770  0.16564126     0.36000
N4499       N  0.46357549  0.10023582  0.18673600    -0.44300
N4500       N  0.33089721  0.00739724  0.16287013    -0.44300
C4501       C  0.54295897  0.07380228  0.29374928    -0.00700
C4502       C  0.54470349  0.10011512  0.28167317    -0.12600
C4503       C  0.55933394  0.12142733  0.29371791     0.01600
C4504       C  0.57250764  0.11745506  0.31932337    -0.00800
C4505       C  0.57095049  0.09111350  0.33173449    -0.12500
C4506       C  0.55664347  0.06933238  0.31913532     0.01400
H4507       H  0.53540920  0.10410824  0.26178678     0.14400
H4508       H  0.58115467  0.08736100  0.35126454     0.14400
C4509       C  0.55732142  0.04260640  0.33223648     0.36100
C4510       C  0.56166896  0.14642269  0.27786248     0.36000
N4511       N  0.55809511  0.02115342  0.34269191    -0.44300
N4512       N  0.56329565  0.16588769  0.26419680    -0.44300
C4513       C  0.56745268  0.05044200  0.19320792    -0.00700
C4514       C  0.57211187  0.07665333  0.20384183    -0.12600
C4515       C  0.59127614  0.09406114  0.19179419     0.01600
C4516       C  0.60673279  0.08506354  0.16891382    -0.00800
C4517       C  0.60125049  0.05923978  0.15728972    -0.12500
C4518       C  0.58132610  0.04196386  0.16911466     0.01400
H4519       H  0.56102123  0.08341186  0.22204204     0.14400
H4520       H  0.61329849  0.05213777  0.13984157     0.14400
C4521       C  0.57632718  0.01538481  0.15707069     0.36100
C4522       C  0.59521592  0.12070326  0.20410574     0.36000
N4523       N  0.57223152  0.99412824  0.14730325    -0.44300
N4524       N  0.59758394  0.14198432  0.21436197    -0.44300
C4525       C  0.88573461  0.43114786  0.33964855    -0.00700
C4526       C  0.88021616  0.45743471  0.32877709    -0.12600
C4527       C  0.90099436  0.47331173  0.31658560     0.01600
C4528       C  0.92811682  0.46317790  0.31525115    -0.00800
C4529       C  0.93408930  0.43787123  0.32814343    -0.12500
C4530       C  0.91322468  0.42169074  0.33984396     0.01400
H4531       H  0.85935434  0.46501432  0.32849543     0.14400
H4532       H  0.95469669  0.42949452  0.32683291     0.14400
C4533       C  0.92013198  0.39404918  0.34843289     0.36100
C4534       C  0.89381419  0.49945354  0.30441182     0.36000
N4535       N  0.92561379  0.37172927  0.35482498    -0.44300
N4536       N  0.88833193  0.52036289  0.29433473    -0.44300
C4537       C  0.95131925  0.42651285  0.21157290    -0.00700
C4538       C  0.93946799  0.43093157  0.18565964    -0.12600
C4539       C  0.92636424  0.40946328  0.17201403     0.01600
C4540       C  0.92505616  0.38309749  0.18454339    -0.00800
C4541       C  0.93834569  0.37823270  0.20944472    -0.12500
C4542       C  0.95135123  0.39938692  0.22312578     0.01400
H4543       H  0.93974244  0.45128338  0.17639407     0.14400
H4544       H  0.93767030  0.35793926  0.21890077     0.14400
C4545       C  0.96360751  0.39207747  0.24938592     0.36100
C4546       C  0.91482725  0.41507016  0.14510962     0.36000
N4547       N  0.97318002  0.38594452  0.27039621    -0.44300
N4548       N  0.90568336  0.41960677  0.12352321    -0.44300
C4549       C  0.94510438  0.57512712  0.29681735    -0.00700
C4550       C  0.91965699  0.57593378  0.28361600    -0.12600
C4551       C  0.89765823  0.59001596  0.29512631     0.01600
C4552       C  0.90091606  0.60304687  0.32091341    -0.00800
C4553       C  0.92703635  0.60393520  0.33309605    -0.12500
C4554       C  0.94926595  0.59027671  0.32101656     0.01400
H4555       H  0.91683922  0.56523784  0.26424157     0.14400
H4556       H  0.92990873  0.61441164  0.35258892     0.14400
C4557       C  0.97562799  0.59105321  0.33437375     0.36100
C4558       C  0.87241266  0.59093173  0.27959166     0.36000
N4559       N  0.99681032  0.59183020  0.34499583    -0.44300
N4560       N  0.85250681  0.59150057  0.26666556    -0.44300
C4561       C  0.91859006  0.61298236  0.17460020    -0.00700
C4562       C  0.94276029  0.61531654  0.18951532    -0.12600
C4563       C  0.95341981  0.59311296  0.20450853     0.01600
C4564       C  0.93988694  0.56720962  0.20478627    -0.00800
C4565       C  0.91531338  0.56490653  0.18998597    -0.12500
C4566       C  0.90451325  0.58743149  0.17509627     0.01400
H4567       H  0.95316940  0.63498359  0.18993210     0.14400
H4568       H  0.90422321  0.54563836  0.19041635     0.14400
C4569       C  0.87806374  0.58408436  0.16223092     0.36100
C4570       C  0.97742457  0.59890091  0.22065147     0.36000
N4571       N  0.85676512  0.58095547  0.15230772    -0.44300
N4572       N  0.99645690  0.60487632  0.23339374    -0.44300
C4573       C  0.07211414  0.54559918  0.30046273    -0.00700
C4574       C  0.09250654  0.55790005  0.28415287    -0.12600
C4575       C  0.11103057  0.57643751  0.29513581     0.01600
C4576       C  0.10998282  0.58316418  0.32337242    -0.00800
C4577       C  0.08981222  0.57073798  0.34007157    -0.12500
C4578       C  0.07083968  0.55211580  0.32883961     0.01400
H4579       H  0.09357188  0.55381420  0.26215436     0.14400
H4580       H  0.08934266  0.57495462  0.36200949     0.14400
C4581       C  0.05102351  0.53938989  0.34691319     0.36100
C4582       C  0.12994640  0.58897673  0.27613316     0.36000
N4583       N  0.03516226  0.52910751  0.36140599    -0.44300
N4584       N  0.14425855  0.59830066  0.25958557    -0.44300
C4585       C  0.04837132  0.57142768  0.20206391    -0.00700
C4586       C  0.05803291  0.59354276  0.21792865    -0.12600
C4587       C  0.07044704  0.61655289  0.20603431     0.01600
C4588       C  0.07401172  0.61834223  0.17705702    -0.00800
C4589       C  0.06499915  0.59590545  0.16097636    -0.12500
C4590       C  0.05227726  0.57266563  0.17315544     0.01400
H4591       H  0.05616563  0.59291525  0.24026418     0.14400
H4592       H  0.06805375  0.59639973  0.13879164     0.14400
C4593       C  0.04343869  0.55059470  0.15556487     0.36100
C4594       C  0.08038616  0.63718181  0.22479609     0.36000
N4595       N  0.03639640  0.53287873  0.14142351    -0.44300
N4596       N  0.08809001  0.65330248  0.24040413    -0.44300
C4597       C  0.07429428  0.44926546  0.30218753    -0.00700
C4598       C  0.09100435  0.46586304  0.31846293    -0.12600
C4599       C  0.11183548  0.45402636  0.33432826     0.01600
C4600       C  0.11611253  0.42537072  0.33320460    -0.00800
C4601       C  0.09800726  0.40890744  0.31804936    -0.12500
C4602       C  0.07715403  0.42058690  0.30266523     0.01400
H4603       H  0.08767060  0.48793151  0.31885645     0.14400
H4604       H  0.10059814  0.38673331  0.31739808     0.14400
C4605       C  0.05905403  0.40262294  0.28763360     0.36100
C4606       C  0.12667556  0.47132382  0.35305376     0.36000
N4607       N  0.04469667  0.38783744  0.27596483    -0.44300
N4608       N  0.13747626  0.48558447  0.36859578    -0.44300
C4609       C  0.05967187  0.37396873  0.17080237    -0.00700
C4610       C  0.06401628  0.40124046  0.16237361    -0.12600
C4611       C  0.05178067  0.42332635  0.17639230     0.01600
C4612       C  0.03457492  0.41840708  0.19961659    -0.00800
C4613       C  0.02808622  0.39096532  0.20615591    -0.12500
C4614       C  0.04012119  0.36889041  0.19180344     0.01400
H4615       H  0.07871600  0.40552240  0.14608529     0.14400
H4616       H  0.01431595  0.38663901  0.22316728     0.14400
C4617       C  0.03223785  0.34121608  0.19915998     0.36100
C4618       C  0.05935201  0.45070264  0.16766310     0.36000
N4619       N  0.02570824  0.31904344  0.20483132    -0.44300
N4620       N  0.06553349  0.47259267  0.16061917    -0.44300
loop_ 
_geom_bond_atom_site_label_1 
_geom_bond_atom_site_label_2 
_geom_bond_distance 
_geom_bond_site_symmetry_2 
_ccdc_geom_bond_type 
O1            C9   1.254       .  A
O1          Co21   1.944   1_455  S
O2           C10   1.262       .  A
O2          Co22   1.880       .  S
O3           C11   1.281       .  A
O3          Co23   2.010       .  S
O4           C12   1.278       .  A
O4          Co24   2.023       .  S
O5           C11   1.274       .  A
O5          Co22   1.978   1_455  S
O6           C12   1.272       .  A
O6          Co21   1.989       .  S
O7           C10   1.292       .  A
O7          Co24   2.105       .  S
O8            C9   1.266       .  A
O8          Co23   1.999       .  S
C9         C4597   1.439       .  S
C10        C4549   1.455       .  S
C11        C4573   1.486       .  S
C12        C4528   1.493       .  S
O13          C26   1.256       .  A
O13         Co21   1.952       .  S
O14          C27   1.261       .  A
O14         Co22   1.980   1_455  S
O15          C28   1.270       .  A
O15         Co23   1.964       .  S
O16          C29   1.280       .  A
O16         Co24   1.907       .  S
O17          C29   1.296       .  A
O17         Co22   2.117       .  S
O18          C28   1.288       .  A
O18         Co21   2.058   1_455  S
O19          C26   1.277       .  A
O19         Co24   2.003       .  S
O20          C27   1.272       .  A
O20         Co23   2.019       .  S
Co21         O25   2.009   1_655  S
Co22         O25   1.952   1_655  S
Co23         O25   2.032       .  S
Co24         O25   1.985   1_655  S
C26        C4537   1.475       .  S
C27        C4585   1.503       .  S
C28        C4612   1.500       .  S
C29        C4564   1.497       .  S
O30          C38   1.274       .  A
O30         Co50   1.986   1_545  S
O31          C39   1.270       .  A
O31         Co51   1.996       .  S
O32          C40   1.274       .  A
O32         Co52   2.011       .  S
O33          C41   1.288       .  A
O33         Co53   2.079       .  S
O34          C40   1.273       .  A
O34         Co51   1.990   1_545  S
O35          C41   1.276       .  A
O35         Co50   1.917       .  S
O36          C39   1.274       .  A
O36         Co53   2.021       .  S
O37          C38   1.278       .  A
O37         Co52   2.012       .  S
C38        C4501   1.501       .  S
C39        C4453   1.505       .  S
C40        C4480   1.497       .  S
C41        C4432   1.490       .  S
O42          C55   1.287       .  A
O42         Co50   2.098       .  S
O43          C56   1.274       .  A
O43         Co51   2.020   1_545  S
O44          C57   1.264       .  A
O44         Co52   1.983       .  S
O45          C58   1.271       .  A
O45         Co53   1.974       .  S
O46          C58   1.280       .  A
O46         Co51   2.016       .  S
O47          C57   1.272       .  A
O47         Co50   2.005   1_545  S
O48          C55   1.274       .  A
O48         Co53   1.929       .  S
O49          C56   1.268       .  A
O49         Co52   1.977       .  S
Co50         O54   2.005   1_565  S
Co51         O54   2.022   1_565  S
Co52         O54   2.009       .  S
Co53         O54   1.985   1_565  S
C55        C4441   1.504       .  S
C56        C4489   1.485       .  S
C57        C4513   1.466       .  S
C58        C4465   1.469       .  S
O59          C67   1.281       .  A
O59         Co79   2.025       .  S
O60          C68   1.263       .  A
O60         Co80   1.972       .  S
O61          C69   1.276       .  A
O61         Co81   2.035   1_565  S
O62          C70   1.272       .  A
O62         Co82   2.021   1_545  S
O63          C69   1.267       .  A
O63         Co80   1.986       .  S
O64          C70   1.276       .  A
O64         Co79   2.012       .  S
O65          C68   1.278       .  A
O65         Co82   2.055       .  S
O66          C67   1.270       .  A
O66         Co81   2.009       .  S
C67        C4417   1.516       .  S
C68        C4369   1.504       .  S
C69        C4345   1.506       .  S
C70        C4396   1.521       .  S
O71          C84   1.278       .  A
O71         Co79   2.043       .  S
O72          C85   1.268       .  A
O72         Co80   2.007       .  S
O73          C86   1.271       .  A
O73         Co81   1.998       .  S
O74          C87   1.260       .  A
O74         Co82   1.988       .  S
O75          C87   1.279       .  A
O75         Co80   2.064       .  S
O76          C86   1.272       .  A
O76         Co79   2.022       .  S
O77          C84   1.263       .  A
O77         Co82   1.965   1_545  S
O78          C85   1.264       .  A
O78         Co81   1.963   1_565  S
Co79         O83   2.121   1_545  S
Co80         O83   2.117       .  S
Co81         O83   2.106   1_545  S
Co82         O83   2.105       .  S
C84        C4384   1.492       .  S
C85        C4333   1.474       .  S
C86        C4405   1.510       .  S
C87        C4357   1.504       .  S
O88          C96   1.266       .  A
O88        Co108   1.968   1_455  S
O89          C97   1.279       .  A
O89        Co109   2.001   1_655  S
O90          C98   1.277       .  A
O90        Co110   2.040       .  S
O91          C99   1.271       .  A
O91        Co111   2.026       .  S
O92          C98   1.272       .  A
O92        Co109   1.993       .  S
O93          C99   1.258       .  A
O93        Co108   1.954       .  S
O94          C97   1.268       .  A
O94        Co111   2.005       .  S
O95          C96   1.276       .  A
O95        Co110   2.029       .  S
C96        C4309   1.486       .  S
C97        C4261   1.498       .  S
C98        C4285   1.517       .  S
C99        C4240   1.486       .  S
O100        C113   1.276       .  A
O100       Co108   2.033       .  S
O101        C114   1.271       .  A
O101       Co109   2.012       .  S
O102        C115   1.272       .  A
O102       Co110   2.007       .  S
O103        C116   1.268       .  A
O103       Co111   1.986       .  S
O104        C116   1.268       .  A
O104       Co109   2.003   1_655  S
O105        C115   1.264       .  A
O105       Co108   2.003   1_455  S
O106        C113   1.265       .  A
O106       Co111   1.964       .  S
O107        C114   1.271       .  A
O107       Co110   1.984       .  S
Co108       O112   2.089   1_655  S
Co109       O112   2.104       .  S
Co110       O112   2.110       .  S
Co111       O112   2.119   1_655  S
C113       C4249   1.480       .  S
C114       C4300   1.490       .  S
C115       C4321   1.504       .  S
C116       C4276   1.486       .  S
O117        C125   1.283       .  A
O117       Co137   2.034   1_554  S
O118        C126   1.269       .  A
O118       Co138   1.891       .  S
O119        C127   1.286       .  A
O119       Co139   2.047       .  S
O120        C128   1.269       .  A
O120       Co140   1.990       .  S
O121        C127   1.275       .  A
O121       Co138   1.995   1_554  S
O122        C128   1.281       .  A
O122       Co137   2.007       .  S
O123        C126   1.304       .  A
O123       Co140   2.151       .  S
O124        C125   1.258       .  A
O124       Co139   1.961       .  S
C125       C4216   1.500       .  S
C126       C4165   1.486       .  S
C127       C4192   1.519       .  S
C128       C4144   1.502       .  S
O129        C142   1.278       .  A
O129       Co137   2.013       .  S
O130        C143   1.266       .  A
O130       Co138   1.994   1_554  S
O131        C144   1.279       .  A
O131       Co139   1.994       .  S
O132        C145   1.276       .  A
O132       Co140   1.918       .  S
O133        C145   1.294       .  A
O133       Co138   2.111       .  S
O134        C144   1.275       .  A
O134       Co137   2.010   1_554  S
O135        C142   1.285       .  A
O135       Co140   2.029       .  S
O136        C143   1.266       .  A
O136       Co139   1.983       .  S
Co137       O141   2.031   1_556  S
Co138       O141   1.991   1_556  S
Co139       O141   2.018       .  S
Co140       O141   1.995   1_556  S
C142       C4156   1.522       .  S
C143       C4204   1.474       .  S
C144       C4228   1.497       .  S
C145       C4177   1.497       .  S
O146        C154   1.279       .  A
O146       Co166   1.999   1_554  S
O147        C155   1.274       .  A
O147       Co167   1.993       .  S
O148        C156   1.271       .  A
O148       Co168   2.008       .  S
O149        C157   1.298       .  A
O149       Co169   2.137       .  S
O150        C156   1.273       .  A
O150       Co167   1.997   1_554  S
O151        C157   1.275       .  A
O151       Co166   1.929       .  S
O152        C155   1.282       .  A
O152       Co169   2.023       .  S
O153        C154   1.279       .  A
O153       Co168   2.021       .  S
C154       C4117   1.490       .  S
C155       C4069   1.505       .  S
C156       C4093   1.494       .  S
C157       C4045   1.520       .  S
O158        C171   1.298       .  A
O158       Co166   2.127       .  S
O159        C172   1.278       .  A
O159       Co167   2.026   1_554  S
O160        C173   1.275       .  A
O160       Co168   1.993       .  S
O161        C174   1.279       .  A
O161       Co169   2.013       .  S
O162        C174   1.275       .  A
O162       Co167   2.010       .  S
O163        C173   1.271       .  A
O163       Co166   2.000   1_554  S
O164        C171   1.280       .  A
O164       Co169   1.934       .  S
O165        C172   1.279       .  A
O165       Co168   2.006       .  S
Co166       O170   1.995   1_556  S
Co167       O170   2.026   1_556  S
Co168       O170   2.036       .  S
Co169       O170   2.007   1_556  S
C171       C4057   1.525       .  S
C172       C4108   1.515       .  S
C173       C4132   1.493       .  S
C174       C4081   1.513       .  S
O175        C183   1.276       .  A
O175       Co195   2.013       .  S
O176        C184   1.292       .  A
O176       Co196   2.087       .  S
O177        C185   1.272       .  A
O177       Co197   1.991       .  S
O178        C186   1.275       .  A
O178       Co198   1.982   1_545  S
O179        C185   1.278       .  A
O179       Co196   2.028       .  S
O180        C186   1.274       .  A
O180       Co195   1.998       .  S
O181        C184   1.270       .  A
O181       Co198   1.895       .  S
O182        C183   1.271       .  A
O182       Co197   1.994   1_545  S
C183       C4021   1.498       .  S
C184       C3949   1.478       .  S
C185       C3976   1.504       .  S
C186       C3997   1.467       .  S
O187        C200   1.267       .  A
O187       Co195   2.001       .  S
O188        C201   1.276       .  A
O188       Co196   1.993       .  S
O189        C202   1.275       .  A
O189       Co197   2.011   1_545  S
O190        C203   1.296       .  A
O190       Co198   2.117       .  S
O191        C203   1.276       .  A
O191       Co196   1.917       .  S
O192        C202   1.265       .  A
O192       Co195   1.954       .  S
O193        C200   1.264       .  A
O193       Co198   2.000   1_545  S
O194        C201   1.274       .  A
O194       Co197   2.008       .  S
Co195       O199   2.016       .  S
Co196       O199   1.987   1_565  S
Co197       O199   2.036   1_565  S
Co198       O199   1.995   1_565  S
C200       C4009   1.483       .  S
C201       C3988   1.493       .  S
C202       C4036   1.465       .  S
C203       C3961   1.511       .  S
O204        C212   1.281       .  A
O204       Co224   2.042       .  S
O205        C213   1.265       .  A
O205       Co225   1.984       .  S
O206        C214   1.267       .  A
O206       Co226   1.896       .  S
O207        C215   1.258       .  A
O207       Co227   1.953       .  S
O208        C214   1.304       .  A
O208       Co225   2.153       .  S
O209        C215   1.274       .  A
O209       Co224   2.028       .  S
O210        C213   1.265       .  A
O210       Co227   1.991   1_556  S
O211        C212   1.280       .  A
O211       Co226   2.014   1_554  S
C212       C3925   1.516       .  S
C213       C3856   1.481       .  S
C214       C3877   1.512       .  S
C215       C3904   1.465       .  S
O216        C229   1.267       .  A
O216       Co224   1.993       .  S
O217        C230   1.271       .  A
O217       Co225   1.878       .  S
O218        C231   1.262       .  A
O218       Co226   1.982   1_554  S
O219        C232   1.274       .  A
O219       Co227   2.009   1_556  S
O220        C232   1.279       .  A
O220       Co225   2.022       .  S
O221        C231   1.266       .  A
O221       Co224   1.985       .  S
O222        C229   1.278       .  A
O222       Co227   2.037       .  S
O223        C230   1.298       .  A
O223       Co226   2.121       .  S
Co224       O228   2.048       .  S
Co225       O228   2.002   1_556  S
Co226       O228   1.996   1_556  S
Co227       O228   2.026       .  S
C229       C3913   1.492       .  S
C230       C3892   1.472       .  S
C231       C3940   1.481       .  S
C232       C3868   1.514       .  S
O233        C241   1.272       .  A
O233       Co253   1.986       .  S
O234        C242   1.281       .  A
O234       Co254   2.036       .  S
O235        C243   1.272       .  A
O235       Co255   1.891       .  S
O236        C244   1.273       .  A
O236       Co256   1.998       .  S
O237        C243   1.288       .  A
O237       Co254   2.078       .  S
O238        C244   1.278       .  A
O238       Co253   2.033       .  S
O239        C242   1.271       .  A
O239       Co256   1.998   1_655  S
O240        C241   1.276       .  A
O240       Co255   1.989   1_455  S
C241       C3832   1.484       .  S
C242       C3760   1.515       .  S
C243       C3781   1.465       .  S
C244       C3808   1.510       .  S
O245        C258   1.261       .  A
O245       Co253   1.963       .  S
O246        C259   1.276       .  A
O246       Co254   1.930       .  S
O247        C260   1.264       .  A
O247       Co255   1.987   1_455  S
O248        C261   1.279       .  A
O248       Co256   2.016   1_655  S
O249        C261   1.272       .  A
O249       Co254   1.982       .  S
O250        C260   1.271       .  A
O250       Co253   2.003       .  S
O251        C258   1.276       .  A
O251       Co256   2.017       .  S
O252        C259   1.294       .  A
O252       Co255   2.115       .  S
Co253       O257   2.015       .  S
Co254       O257   1.991   1_655  S
Co255       O257   1.987   1_655  S
Co256       O257   2.027       .  S
C258       C3820   1.461       .  S
C259       C3793   1.514       .  S
C260       C3841   1.490       .  S
C261       C3772   1.492       .  S
O262        C270   1.277       .  A
O262       Co282   1.987   1_455  S
O263        C271   1.274       .  A
O263       Co283   1.987   1_655  S
O264        C272   1.274       .  A
O264       Co284   1.995       .  S
O265        C273   1.294       .  A
O265       Co285   2.116       .  S
O266        C272   1.274       .  A
O266       Co283   1.999       .  S
O267        C273   1.283       .  A
O267       Co282   1.952       .  S
O268        C271   1.279       .  A
O268       Co285   2.016       .  S
O269        C270   1.274       .  A
O269       Co284   2.005       .  S
C270       C3733   1.486       .  S
C271       C3688   1.496       .  S
C272       C3709   1.501       .  S
C273       C3661   1.533       .  S
O274        C287   1.289       .  A
O274       Co282   2.103       .  S
O275        C288   1.277       .  A
O275       Co283   2.030       .  S
O276        C289   1.269       .  A
O276       Co284   1.971       .  S
O277        C290   1.274       .  A
O277       Co285   1.976       .  S
O278        C290   1.274       .  A
O278       Co283   1.989   1_655  S
O279        C289   1.286       .  A
O279       Co282   2.046   1_455  S
O280        C287   1.276       .  A
O280       Co285   1.932       .  S
O281        C288   1.278       .  A
O281       Co284   2.020       .  S
Co282       O286   2.010   1_655  S
Co283       O286   2.028       .  S
Co284       O286   2.002       .  S
Co285       O286   1.988   1_655  S
C287       C3676   1.508       .  S
C288       C3721   1.525       .  S
C289       C3748   1.493       .  S
C290       C3697   1.466       .  S
O291        C299   1.275       .  A
O291       Co311   1.981       .  S
O292        C300   1.243       .  A
O292       Co312   1.986   1_556  S
O293        C301   1.256       .  A
O293       Co313   2.004       .  S
O294        C302   1.276       .  A
O294       Co314   2.008       .  S
O295        C301   1.256       .  A
O295       Co312   1.986       .  S
O296        C302   1.266       .  A
O296       Co311   1.966   1_556  S
O297        C300   1.238       .  A
O297       Co314   1.976       .  S
O298        C299   1.282       .  A
O298       Co313   2.020       .  S
C299       C3637   1.493       .  S
C300       C3589   1.490       .  S
C301       C3616   1.503       .  S
C302       C3565   1.450       .  S
O303        C316   1.276       .  A
O303       Co311   2.038   1_556  S
O304        C317   1.289       .  A
O304       Co312   2.056       .  S
O305        C318   1.272       .  A
O305       Co313   2.002       .  S
O306        C319   1.280       .  A
O306       Co314   1.900       .  S
O307        C319   1.294       .  A
O307       Co312   2.055   1_556  S
O308        C318   1.259       .  A
O308       Co311   1.968       .  S
O309        C316   1.270       .  A
O309       Co314   1.988       .  S
O310        C317   1.277       .  A
O310       Co313   1.916       .  S
Co311       O315   2.064       .  S
Co312       O315   2.198       .  S
Co313       O315   1.983       .  S
Co314       O315   1.967   1_556  S
C316       C3577   1.505       .  S
C317       C3625   1.474       .  S
C318       C3649   1.487       .  S
C319       C3601   1.488       .  S
O320        C328   1.253       .  A
O320       Co340   1.935       .  S
O321        C329   1.245       .  A
O321       Co341   1.936       .  S
O322        C330   1.289       .  A
O322       Co342   2.106       .  S
O323        C331   1.273       .  A
O323       Co343   1.981       .  S
O324        C330   1.244       .  A
O324       Co341   1.946       .  S
O325        C331   1.272       .  A
O325       Co340   2.004       .  S
O326        C329   1.263       .  A
O326       Co343   2.023       .  S
O327        C328   1.295       .  A
O327       Co342   2.094       .  S
C328       C3529   1.488       .  S
C329       C3541   1.472       .  S
C330       C3517   1.499       .  S
C331       C3553   1.487       .  S
O332        C345   1.257       .  A
O332       Co340   2.014       .  S
O333        C346   1.297       .  A
O333       Co341   2.083       .  S
O334        C347   1.300       .  A
O334       Co342   2.095       .  S
O335        C348   1.268       .  A
O335       Co343   1.981       .  S
O336        C348   1.271       .  A
O336       Co341   2.011       .  S
O337        C347   1.266       .  A
O337       Co340   1.886       .  S
O338        C345   1.255       .  A
O338       Co343   1.999       .  S
O339        C346   1.272       .  A
O339       Co342   1.904       .  S
Co340       O344   1.930       .  S
Co341       O344   2.088       .  S
Co342       O344   2.032       .  S
Co343       O344   2.099       .  S
C345       C3505   1.516       .  S
C346       C3685   1.488       .  S
C347       C4237   1.478       .  S
C348       C3493   1.501       .  S
O349        C357   1.258       .  A
O349       Co369   1.975       .  S
O350        C358   1.265       .  A
O350       Co370   1.972       .  S
O351        C359   1.299       .  A
O351       Co371   2.119       .  S
O352        C360   1.273       .  A
O352       Co372   2.037       .  S
O353        C359   1.260       .  A
O353       Co370   1.870       .  S
O354        C360   1.254       .  A
O354       Co369   1.956       .  S
O355        C358   1.283       .  A
O355       Co372   2.063       .  S
O356        C357   1.264       .  A
O356       Co371   2.015       .  S
C357       C4168   1.499       .  S
C358       C3445   1.514       .  S
C359       C3853   1.490       .  S
C360       C3433   1.501       .  S
O361        C374   1.276       .  A
O361       Co369   2.039       .  S
O362        C375   1.290       .  A
O362       Co370   2.084       .  S
O363        C376   1.278       .  A
O363       Co371   2.009       .  S
O364        C377   1.249       .  A
O364       Co372   1.956       .  S
O365        C377   1.260       .  A
O365       Co370   2.019       .  S
O366        C376   1.275       .  A
O366       Co369   2.026       .  S
O367        C374   1.252       .  A
O367       Co372   1.937       .  S
O368        C375   1.269       .  A
O368       Co371   1.893       .  S
Co369       O373   2.042       .  S
Co370       O373   2.011       .  S
Co371       O373   2.030       .  S
Co372       O373   2.058       .  S
C374       C3481   1.479       .  S
C375       C3457   1.467       .  S
C376       C3469   1.519       .  S
C377       C3544   1.477       .  S
O378        C386   1.300       .  A
O378       Co398   2.004       .  S
O379        C387   1.276       .  A
O379       Co399   2.042       .  S
O380        C388   1.267       .  A
O380       Co400   1.995       .  S
O381        C389   1.259       .  A
O381       Co401   1.999       .  S
O382        C388   1.271       .  A
O382       Co399   2.015       .  S
O383        C389   1.255       .  A
O383       Co398   1.982       .  S
O384        C387   1.256       .  A
O384       Co401   1.947       .  S
O385        C386   1.283       .  A
O385       Co400   1.920       .  S
C386       C3409   1.465       .  S
C387       C3556   1.498       .  S
C388       C3397   1.503       .  S
C389       C3484   1.488       .  S
O390        C403   1.287       .  A
O390       Co398   2.040       .  S
O391        C404   1.252       .  A
O391       Co399   1.961       .  S
O392        C405   1.248       .  A
O392       Co400   2.053       .  S
O393        C406   1.268       .  A
O393       Co401   2.016       .  S
O394        C406   1.252       .  A
O394       Co399   1.942       .  S
O395        C405   1.224       .  A
O395       Co398   1.961       .  S
O396        C403   1.268       .  A
O396       Co401   1.966       .  S
O397        C404   1.268       .  A
O397       Co400   2.028       .  S
Co398       O402   1.998       .  S
Co399       O402   2.025       .  S
Co400       O402   2.087       .  S
Co401       O402   2.064       .  S
C403       C3373   1.493       .  S
C404       C3421   1.464       .  S
C405       C4024   1.486       .  S
C406       C3385   1.466       .  S
O407        C415   1.256       .  A
O407       Co427   1.972       .  S
O408        C416   1.272       .  A
O408       Co428   2.012       .  S
O409        C417   1.265       .  A
O409       Co429   2.018       .  S
O410        C418   1.271       .  A
O410       Co430   2.042       .  S
O411        C417   1.258       .  A
O411       Co428   1.994       .  S
O412        C418   1.252       .  A
O412       Co427   1.952       .  S
O413        C416   1.272       .  A
O413       Co430   1.990       .  S
O414        C415   1.268       .  A
O414       Co429   2.031       .  S
C415       C3532   1.479       .  S
C416       C3349   1.508       .  S
C417       C3400   1.505       .  S
C418       C3361   1.495       .  S
O419        C432   1.274       .  A
O419       Co427   2.028       .  S
O420        C433   1.279       .  A
O420       Co428   1.951       .  S
O421        C434   1.258       .  A
O421       Co429   1.933       .  S
O422        C435   1.263       .  A
O422       Co430   1.991       .  S
O423        C435   1.263       .  A
O423       Co428   2.020       .  S
O424        C434   1.279       .  A
O424       Co427   2.037       .  S
O425        C432   1.268       .  A
O425       Co430   1.993       .  S
O426        C433   1.285       .  A
O426       Co429   2.041       .  S
Co427       O431   2.067       .  S
Co428       O431   1.994       .  S
Co429       O431   2.094       .  S
Co430       O431   2.077       .  S
C432       C3313   1.499       .  S
C433       C3337   1.501       .  S
C434       C4252   1.479       .  S
C435       C3328   1.514       .  S
O436        C444   1.272       .  A
O436       Co456   2.015       .  S
O437        C445   1.259       .  A
O437       Co457   2.013       .  S
O438        C446   1.291       .  A
O438       Co458   1.988       .  S
O439        C447   1.265       .  A
O439       Co459   1.965       .  S
O440        C446   1.284       .  A
O440       Co457   1.954       .  S
O441        C447   1.280       .  A
O441       Co456   2.023       .  S
O442        C445   1.256       .  A
O442       Co459   1.994       .  S
O443        C444   1.265       .  A
O443       Co458   1.975       .  S
C444       C4180   1.509       .  S
C445       C3289   1.517       .  S
C446       C4033   1.458       .  S
C447       C3277   1.497       .  S
O448        C461   1.250       .  A
O448       Co456   1.946       .  S
O449        C462   1.253       .  A
O449       Co457   1.975       .  S
O450        C463   1.314       .  A
O450       Co458   2.169       .  S
O451        C464   1.264       .  A
O451       Co459   1.968       .  S
O452        C464   1.279       .  A
O452       Co457   2.035       .  S
O453        C463   1.252       .  A
O453       Co456   1.924       .  S
O454        C461   1.259       .  A
O454       Co459   2.000       .  S
O455        C462   1.274       .  A
O455       Co458   2.021       .  S
Co456       O460   2.035       .  S
Co457       O460   2.027       .  S
Co458       O460   2.038       .  S
Co459       O460   2.081       .  S
C461       C3304   1.466       .  S
C462       C3412   1.465       .  S
C463       C3472   1.511       .  S
C464       C3352   1.510       .  S
O465        C473   1.262       .  A
O465       Co485   1.973       .  S
O466        C474   1.284       .  A
O466       Co486   2.034       .  S
O467        C475   1.254       .  A
O467       Co487   2.080       .  S
O468        C476   1.267       .  A
O468       Co488   2.003       .  S
O469        C475   1.230       .  A
O469       Co486   1.989       .  S
O470        C476   1.260       .  A
O470       Co485   1.958       .  S
O471        C474   1.265       .  A
O471       Co488   1.959       .  S
O472        C473   1.273       .  A
O472       Co487   2.028       .  S
C473       C3460   1.474       .  S
C474       C3364   1.498       .  S
C475       C3520   1.504       .  S
C476       C3301   1.473       .  S
O477        C490   1.279       .  A
O477       Co485   2.038       .  S
O478        C491   1.307       .  A
O478       Co486   2.003       .  S
O479        C492   1.278       .  A
O479       Co487   2.007       .  S
O480        C493   1.257       .  A
O480       Co488   1.999       .  S
O481        C493   1.259       .  A
O481       Co486   1.997       .  S
O482        C492   1.273       .  A
O482       Co485   2.011       .  S
O483        C490   1.266       .  A
O483       Co488   1.971       .  S
O484        C491   1.290       .  A
O484       Co487   1.931       .  S
Co485       O489   2.016       .  S
Co486       O489   1.993       .  S
Co487       O489   2.085       .  S
Co488       O489   2.072       .  S
C490       C3253   1.499       .  S
C491       C3700   1.476       .  S
C492       C3865   1.510       .  S
C493       C3265   1.504       .  S
O494        C502   1.268       .  A
O494       Co514   1.912       .  S
O495        C503   1.251       .  A
O495       Co515   1.969       .  S
O496        C504   1.248       .  A
O496       Co516   1.923       .  S
O497        C505   1.278       .  A
O497       Co517   2.046       .  S
O498        C504   1.258       .  A
O498       Co515   1.991       .  S
O499        C505   1.260       .  A
O499       Co514   1.944       .  S
O500        C503   1.268       .  A
O500       Co517   2.046       .  S
O501        C502   1.291       .  A
O501       Co516   2.071       .  S
C502       C3220   1.484       .  S
C503       C3244   1.492       .  S
C504       C3205   1.477       .  S
C505       C3229   1.493       .  S
O506        C519   1.272       .  A
O506       Co514   2.021       .  S
O507        C520   1.274       .  A
O507       Co515   2.036       .  S
O508        C521   1.237       .  A
O508       Co516   1.921       .  S
O509        C522   1.275       .  A
O509       Co517   2.000       .  S
O510        C522   1.268       .  A
O510       Co515   2.003       .  S
O511        C521   1.270       .  A
O511       Co514   2.067       .  S
O512        C519   1.267       .  A
O512       Co517   1.990       .  S
O513        C520   1.253       .  A
O513       Co516   1.921       .  S
Co514       O518   2.016       .  S
Co515       O518   2.095       .  S
Co516       O518   2.051       .  S
Co517       O518   2.098       .  S
C519       C3193   1.504       .  S
C520       C4000   1.478       .  S
C521       C4381   1.504       .  S
C522       C3376   1.506       .  S
O523        C531   1.303       .  A
O523       Co543   2.117       .  S
O524        C532   1.281       .  A
O524       Co544   2.038       .  S
O525        C533   1.272       .  A
O525       Co545   1.990       .  S
O526        C534   1.257       .  A
O526       Co546   1.978       .  S
O527        C533   1.278       .  A
O527       Co544   2.007       .  S
O528        C534   1.256       .  A
O528       Co543   1.987       .  S
O529        C532   1.263       .  A
O529       Co546   1.954       .  S
O530        C531   1.272       .  A
O530       Co545   1.889       .  S
C531       C4312   1.498       .  S
C532       C3133   1.496       .  S
C533       C3712   1.500       .  S
C534       C3145   1.473       .  S
O535        C548   1.266       .  A
O535       Co543   1.961       .  S
O536        C549   1.254       .  A
O536       Co544   1.968       .  S
O537        C550   1.295       .  A
O537       Co545   2.113       .  S
O538        C551   1.269       .  A
O538       Co546   2.045       .  S
O539        C551   1.248       .  A
O539       Co544   1.945       .  S
O540        C550   1.259       .  A
O540       Co543   1.882       .  S
O541        C548   1.281       .  A
O541       Co546   2.043       .  S
O542        C549   1.268       .  A
O542       Co545   2.028       .  S
Co543       O547   1.984       .  S
Co544       O547   1.990       .  S
Co545       O547   2.023       .  S
Co546       O547   2.061       .  S
C548       C3232   1.498       .  S
C549       C3157   1.478       .  S
C550       C3169   1.478       .  S
C551       C3184   1.479       .  S
O552        C560   1.267       .  A
O552       Co572   1.963       .  S
O553        C561   1.250       .  A
O553       Co573   1.955       .  S
O554        C562   1.263       .  A
O554       Co574   2.031       .  S
O555        C563   1.317       .  A
O555       Co575   2.155       .  S
O556        C562   1.249       .  A
O556       Co573   1.951       .  S
O557        C563   1.277       .  A
O557       Co572   1.864       .  S
O558        C561   1.263       .  A
O558       Co575   2.030       .  S
O559        C560   1.280       .  A
O559       Co574   2.047       .  S
C560       C3112   1.483       .  S
C561       C3181   1.477       .  S
C562       C3121   1.482       .  S
C563       C3241   1.483       .  S
O564        C577   1.247       .  A
O564       Co572   2.037       .  S
O565        C578   1.281       .  A
O565       Co573   2.033       .  S
O566        C579   1.264       .  A
O566       Co574   1.966       .  S
O567        C580   1.257       .  A
O567       Co575   1.966       .  S
O568        C580   1.269       .  A
O568       Co573   2.027       .  S
O569        C579   1.278       .  A
O569       Co572   2.036       .  S
O570        C577   1.233       .  A
O570       Co575   1.966       .  S
O571        C578   1.274       .  A
O571       Co574   1.979       .  S
Co572       O576   2.020       .  S
Co573       O576   2.059       .  S
Co574       O576   2.092       .  S
Co575       O576   2.116       .  S
C577       C3436   1.481       .  S
C578       C4072   1.501       .  S
C579       C4141   1.495       .  S
C580       C3097   1.493       .  S
O581        C589   1.278       .  A
O581       Co601   2.043       .  S
O582        C590   1.276       .  A
O582       Co602   2.049       .  S
O583        C591   1.267       .  A
O583       Co603   1.994       .  S
O584        C592   1.263       .  A
O584       Co604   1.992       .  S
O585        C591   1.274       .  A
O585       Co602   2.042       .  S
O586        C592   1.268       .  A
O586       Co601   2.026       .  S
O587        C590   1.262       .  A
O587       Co604   1.987       .  S
O588        C589   1.267       .  A
O588       Co603   1.980       .  S
C589       C4084   1.510       .  S
C590       C3268   1.509       .  S
C591       C3724   1.522       .  S
C592       C3061   1.509       .  S
O593        C606   1.258       .  A
O593       Co601   1.961       .  S
O594        C607   1.253       .  A
O594       Co602   1.951       .  S
O595        C608   1.268       .  A
O595       Co603   2.038       .  S
O596        C609   1.279       .  A
O596       Co604   2.092       .  S
O597        C609   1.249       .  A
O597       Co602   1.954       .  S
O598        C608   1.254       .  A
O598       Co601   1.954       .  S
O599        C606   1.280       .  A
O599       Co604   2.083       .  S
O600        C607   1.273       .  A
O600       Co603   2.037       .  S
Co601       O605   2.104       .  S
Co602       O605   2.097       .  S
Co603       O605   2.155       .  S
Co604       O605   2.142       .  S
C606       C3073   1.513       .  S
C607       C3160   1.487       .  S
C608       C3124   1.477       .  S
C609       C3085   1.514       .  S
O610        C618   1.255       .  A
O610       Co630   1.956       .  S
O611        C619   1.256       .  A
O611       Co631   1.962       .  S
O612        C620   1.271       .  A
O612       Co632   2.032       .  S
O613        C621   1.274       .  A
O613       Co633   2.061       .  S
O614        C620   1.254       .  A
O614       Co631   1.945       .  S
O615        C621   1.252       .  A
O615       Co630   1.936       .  S
O616        C619   1.279       .  A
O616       Co633   2.086       .  S
O617        C618   1.270       .  A
O617       Co632   2.035       .  S
C618       C3217   1.489       .  S
C619       C3088   1.513       .  S
C620       C3172   1.479       .  S
C621       C3049   1.493       .  S
O622        C635   1.269       .  A
O622       Co630   2.024       .  S
O623        C636   1.274       .  A
O623       Co631   2.021       .  S
O624        C637   1.269       .  A
O624       Co632   1.993       .  S
O625        C638   1.261       .  A
O625       Co633   1.983       .  S
O626        C638   1.272       .  A
O626       Co631   2.035       .  S
O627        C637   1.276       .  A
O627       Co630   2.041       .  S
O628        C635   1.260       .  A
O628       Co633   1.967       .  S
O629        C636   1.264       .  A
O629       Co632   1.971       .  S
Co630       O634   2.088       .  S
Co631       O634   2.097       .  S
Co632       O634   2.147       .  S
Co633       O634   2.137       .  S
C635       C3037   1.491       .  S
C636       C4324   1.497       .  S
C637       C4393   1.520       .  S
C638       C3316   1.504       .  S
O639        C647   1.255       .  A
O639       Co659   1.980       .  S
O640        C648   1.262       .  A
O640       Co660   1.971       .  S
O641        C649   1.291       .  A
O641       Co661   2.093       .  S
O642        C650   1.278       .  A
O642       Co662   2.077       .  S
O643        C649   1.262       .  A
O643       Co660   1.885       .  S
O644        C650   1.252       .  A
O644       Co659   1.953       .  S
O645        C648   1.273       .  A
O645       Co662   2.033       .  S
O646        C647   1.264       .  A
O646       Co661   2.017       .  S
C647       C3109   1.497       .  S
C648       C3052   1.495       .  S
C649       C3208   1.476       .  S
C650       C3076   1.511       .  S
O651        C664   1.278       .  A
O651       Co659   2.033       .  S
O652        C665   1.301       .  A
O652       Co660   2.109       .  S
O653        C666   1.276       .  A
O653       Co661   2.005       .  S
O654        C667   1.265       .  A
O654       Co662   2.006       .  S
O655        C667   1.263       .  A
O655       Co660   2.017       .  S
O656        C666   1.280       .  A
O656       Co659   2.025       .  S
O657        C664   1.260       .  A
O657       Co662   1.946       .  S
O658        C665   1.267       .  A
O658       Co661   1.898       .  S
Co659       O663   2.029       .  S
Co660       O663   2.010       .  S
Co661       O663   2.039       .  S
Co662       O663   2.085       .  S
C664       C3013   1.476       .  S
C665       C4012   1.489       .  S
C666       C4153   1.516       .  S
C667       C3028   1.516       .  S
O668        C676   1.278       .  A
O668       Co688   2.028       .  S
O669        C677   1.267       .  A
O669       Co689   2.022       .  S
O670        C678   1.272       .  A
O670       Co690   1.922       .  S
O671        C679   1.260       .  A
O671       Co691   1.960       .  S
O672        C678   1.297       .  A
O672       Co689   2.103       .  S
O673        C679   1.277       .  A
O673       Co688   2.033       .  S
O674        C677   1.256       .  A
O674       Co691   1.979       .  S
O675        C676   1.273       .  A
O675       Co690   1.984       .  S
C676       C3973   1.501       .  S
C677       C2941   1.502       .  S
C678       C2977   1.509       .  S
C679       C2929   1.493       .  S
O680        C693   1.256       .  A
O680       Co688   1.959       .  S
O681        C694   1.265       .  A
O681       Co689   1.903       .  S
O682        C695   1.269       .  A
O682       Co690   2.023       .  S
O683        C696   1.282       .  A
O683       Co691   2.055       .  S
O684        C696   1.263       .  A
O684       Co689   1.963       .  S
O685        C695   1.256       .  A
O685       Co688   1.972       .  S
O686        C693   1.275       .  A
O686       Co691   2.065       .  S
O687        C694   1.292       .  A
O687       Co690   2.106       .  S
Co688       O692   2.026       .  S
Co689       O692   2.011       .  S
Co690       O692   2.037       .  S
Co691       O692   2.068       .  S
C693       C2989   1.514       .  S
C694       C2965   1.496       .  S
C695       C2953   1.487       .  S
C696       C3001   1.509       .  S
O697        C705   1.309       .  A
O697       Co717   2.033       .  S
O698        C706   1.277       .  A
O698       Co718   2.024       .  S
O699        C707   1.275       .  A
O699       Co719   1.998       .  S
O700        C708   1.259       .  A
O700       Co720   1.980       .  S
O701        C707   1.277       .  A
O701       Co718   2.030       .  S
O702        C708   1.266       .  A
O702       Co717   2.003       .  S
O703        C706   1.263       .  A
O703       Co720   1.967       .  S
O704        C705   1.285       .  A
O704       Co719   1.905       .  S
C705       C3784   1.478       .  S
C706       C3496   1.497       .  S
C707       C3664   1.527       .  S
C708       C2881   1.509       .  S
O709        C722   1.285       .  A
O709       Co717   2.031       .  S
O710        C723   1.252       .  A
O710       Co718   1.941       .  S
O711        C724   1.244       .  A
O711       Co719   2.053       .  S
O712        C725   1.266       .  A
O712       Co720   2.023       .  S
O713        C725   1.253       .  A
O713       Co718   1.951       .  S
O714        C724   1.225       .  A
O714       Co717   1.978       .  S
O715        C722   1.270       .  A
O715       Co720   1.982       .  S
O716        C723   1.268       .  A
O716       Co719   2.026       .  S
Co717       O721   2.012       .  S
Co718       O721   2.011       .  S
Co719       O721   2.092       .  S
Co720       O721   2.073       .  S
C722       C3004   1.493       .  S
C723       C2893   1.471       .  S
C724       C2905   1.486       .  S
C725       C2917   1.486       .  S
O726        C734   1.271       .  A
O726       Co746   2.058       .  S
O727        C735   1.259       .  A
O727       Co747   1.988       .  S
O728        C736   1.257       .  A
O728       Co748   1.924       .  S
O729        C737   1.257       .  A
O729       Co749   1.969       .  S
O730        C736   1.270       .  A
O730       Co747   2.008       .  S
O731        C737   1.282       .  A
O731       Co746   2.060       .  S
O732        C735   1.259       .  A
O732       Co749   1.994       .  S
O733        C734   1.245       .  A
O733       Co748   1.947       .  S
C734       C3880   1.516       .  S
C735       C2845   1.496       .  S
C736       C3568   1.466       .  S
C737       C3448   1.499       .  S
O738        C751   1.261       .  A
O738       Co746   1.955       .  S
O739        C752   1.254       .  A
O739       Co747   1.976       .  S
O740        C753   1.276       .  A
O740       Co748   2.022       .  S
O741        C754   1.280       .  A
O741       Co749   2.080       .  S
O742        C754   1.257       .  A
O742       Co747   1.960       .  S
O743        C753   1.277       .  A
O743       Co746   1.945       .  S
O744        C751   1.275       .  A
O744       Co749   2.032       .  S
O745        C752   1.246       .  A
O745       Co748   1.950       .  S
Co746       O750   2.034       .  S
Co747       O750   2.115       .  S
Co748       O750   2.047       .  S
Co749       O750   2.086       .  S
C751       C2920   1.492       .  S
C752       C2869   1.465       .  S
C753       C2857   1.496       .  S
C754       C2992   1.513       .  S
O755        C763   1.286       .  A
O755       Co775   2.077       .  S
O756        C764   1.258       .  A
O756       Co776   2.023       .  S
O757        C765   1.292       .  A
O757       Co777   2.054       .  S
O758        C766   1.269       .  A
O758       Co778   1.967       .  S
O759        C765   1.278       .  A
O759       Co776   1.930       .  S
O760        C766   1.283       .  A
O760       Co775   2.041       .  S
O761        C764   1.257       .  A
O761       Co778   1.990       .  S
O762        C763   1.260       .  A
O762       Co777   1.943       .  S
C763       C3796   1.509       .  S
C764       C3325   1.518       .  S
C765       C2809   1.491       .  S
C766       C2797   1.485       .  S
O767        C780   1.256       .  A
O767       Co775   1.987       .  S
O768        C781   1.262       .  A
O768       Co776   1.995       .  S
O769        C782   1.274       .  A
O769       Co777   2.040       .  S
O770        C783   1.269       .  A
O770       Co778   1.994       .  S
O771        C783   1.275       .  A
O771       Co776   2.023       .  S
O772        C782   1.259       .  A
O772       Co775   1.976       .  S
O773        C780   1.258       .  A
O773       Co778   2.019       .  S
O774        C781   1.261       .  A
O774       Co777   1.994       .  S
Co775       O779   2.067       .  S
Co776       O779   1.989       .  S
Co777       O779   2.093       .  S
Co778       O779   2.099       .  S
C780       C2821   1.494       .  S
C781       C2968   1.488       .  S
C782       C2908   1.498       .  S
C783       C2833   1.495       .  S
O784        C792   1.300       .  A
O784       Co804   2.115       .  S
O785        C793   1.273       .  A
O785       Co805   2.022       .  S
O786        C794   1.268       .  A
O786       Co806   1.969       .  S
O787        C795   1.264       .  A
O787       Co807   1.983       .  S
O788        C794   1.285       .  A
O788       Co805   2.050       .  S
O789        C795   1.274       .  A
O789       Co804   2.034       .  S
O790        C793   1.264       .  A
O790       Co807   1.970       .  S
O791        C792   1.261       .  A
O791       Co806   1.870       .  S
C792       C3889   1.474       .  S
C793       C2773   1.496       .  S
C794       C3673   1.510       .  S
C795       C2761   1.506       .  S
O796        C809   1.269       .  A
O796       Co804   1.981       .  S
O797        C810   1.245       .  A
O797       Co805   1.954       .  S
O798        C811   1.290       .  A
O798       Co806   2.094       .  S
O799        C812   1.276       .  A
O799       Co807   2.062       .  S
O800        C812   1.248       .  A
O800       Co805   1.942       .  S
O801        C811   1.272       .  A
O801       Co804   1.908       .  S
O802        C809   1.276       .  A
O802       Co807   2.030       .  S
O803        C810   1.253       .  A
O803       Co806   2.005       .  S
Co804       O808   2.025       .  S
Co805       O808   2.017       .  S
Co806       O808   2.021       .  S
Co807       O808   2.060       .  S
C809       C2785   1.492       .  S
C810       C2896   1.452       .  S
C811       C2860   1.491       .  S
C812       C2824   1.491       .  S
O813        C821   1.279       .  A
O813       Co833   1.915       .  S
O814        C822   1.278       .  A
O814       Co834   2.034       .  S
O815        C823   1.270       .  A
O815       Co835   1.978       .  S
O816        C824   1.255       .  A
O816       Co836   1.990       .  S
O817        C823   1.277       .  A
O817       Co834   2.039       .  S
O818        C824   1.257       .  A
O818       Co833   2.038       .  S
O819        C822   1.264       .  A
O819       Co836   1.971       .  S
O820        C821   1.300       .  A
O820       Co835   2.057       .  S
C821       C3985   1.493       .  S
C822       C2749   1.480       .  S
C823       C3580   1.505       .  S
C824       C3292   1.516       .  S
O825        C838   1.269       .  A
O825       Co833   2.013       .  S
O826        C839   1.242       .  A
O826       Co834   1.946       .  S
O827        C840   1.258       .  A
O827       Co835   2.010       .  S
O828        C841   1.259       .  A
O828       Co836   2.036       .  S
O829        C841   1.244       .  A
O829       Co834   1.961       .  S
O830        C840   1.250       .  A
O830       Co833   1.978       .  S
O831        C838   1.268       .  A
O831       Co836   2.009       .  S
O832        C839   1.260       .  A
O832       Co835   2.026       .  S
Co833       O837   1.953       .  S
Co834       O837   2.050       .  S
Co835       O837   2.231       .  S
Co836       O837   2.136       .  S
C838       C2836   1.497       .  S
C839       C2872   1.483       .  S
C840       C2956   1.478       .  S
C841       C2788   1.488       .  S
O842        C850   1.279       .  A
O842       Co862   2.044       .  S
O843        C851   1.251       .  A
O843       Co863   1.937       .  S
O844        C852   1.270       .  A
O844       Co864   1.895       .  S
O845        C853   1.267       .  A
O845       Co865   1.980       .  S
O846        C852   1.291       .  A
O846       Co863   2.074       .  S
O847        C853   1.273       .  A
O847       Co862   2.018       .  S
O848        C851   1.270       .  A
O848       Co865   2.025       .  S
O849        C850   1.276       .  A
O849       Co864   1.988       .  S
C850       C4360   1.508       .  S
C851       C2932   1.472       .  S
C852       C3952   1.469       .  S
C853       C2689   1.496       .  S
O854        C867   1.251       .  A
O854       Co862   1.943       .  S
O855        C868   1.240       .  A
O855       Co863   1.943       .  S
O856        C869   1.258       .  A
O856       Co864   2.001       .  S
O857        C870   1.277       .  A
O857       Co865   2.041       .  S
O858        C870   1.256       .  A
O858       Co863   1.959       .  S
O859        C869   1.252       .  A
O859       Co862   1.950       .  S
O860        C867   1.270       .  A
O860       Co865   2.032       .  S
O861        C868   1.259       .  A
O861       Co864   2.032       .  S
Co862       O866   2.035       .  S
Co863       O866   2.044       .  S
Co864       O866   2.002       .  S
Co865       O866   2.103       .  S
C867       C2725   1.488       .  S
C868       C2713   1.464       .  S
C869       C2704   1.454       .  S
C870       C2737   1.505       .  S
O871        C879   1.252       .  A
O871       Co891   1.946       .  S
O872        C880   1.283       .  A
O872       Co892   2.031       .  S
O873        C881   1.244       .  A
O873       Co893   2.027       .  S
O874        C882   1.266       .  A
O874       Co894   2.015       .  S
O875        C881   1.228       .  A
O875       Co892   1.969       .  S
O876        C882   1.257       .  A
O876       Co891   1.952       .  S
O877        C880   1.266       .  A
O877       Co894   1.977       .  S
O878        C879   1.274       .  A
O878       Co893   2.033       .  S
C879       C2668   1.472       .  S
C880       C2740   1.510       .  S
C881       C2653   1.466       .  S
C882       C2677   1.472       .  S
O883        C896   1.273       .  A
O883       Co891   2.016       .  S
O884        C897   1.308       .  A
O884       Co892   2.028       .  S
O885        C898   1.278       .  A
O885       Co893   1.993       .  S
O886        C899   1.258       .  A
O886       Co894   1.980       .  S
O887        C899   1.261       .  A
O887       Co892   1.985       .  S
O888        C898   1.280       .  A
O888       Co891   2.030       .  S
O889        C896   1.265       .  A
O889       Co894   1.971       .  S
O890        C897   1.293       .  A
O890       Co893   1.953       .  S
Co891       O895   2.004       .  S
Co892       O895   2.007       .  S
Co893       O895   2.086       .  S
Co894       O895   2.061       .  S
C896       C3100   1.488       .  S
C897       C3592   1.493       .  S
C898       C4048   1.518       .  S
C899       C2848   1.480       .  S
O900        C908   1.265       .  A
O900       Co920   1.898       .  S
O901        C909   1.258       .  A
O901       Co921   1.948       .  S
O902        C910   1.269       .  A
O902       Co922   2.032       .  S
O903        C911   1.279       .  A
O903       Co923   2.041       .  S
O904        C910   1.254       .  A
O904       Co921   1.965       .  S
O905        C911   1.266       .  A
O905       Co920   1.954       .  S
O906        C909   1.269       .  A
O906       Co923   2.022       .  S
O907        C908   1.288       .  A
O907       Co922   2.092       .  S
C908       C2641   1.463       .  S
C909       C2680   1.474       .  S
C910       C2629   1.489       .  S
C911       C2728   1.491       .  S
O912        C925   1.265       .  A
O912       Co920   2.000       .  S
O913        C926   1.282       .  A
O913       Co921   2.027       .  S
O914        C927   1.266       .  A
O914       Co922   1.878       .  S
O915        C928   1.271       .  A
O915       Co923   1.977       .  S
O916        C928   1.274       .  A
O916       Co921   2.014       .  S
O917        C927   1.295       .  A
O917       Co920   2.103       .  S
O918        C925   1.265       .  A
O918       Co923   1.987       .  S
O919        C926   1.266       .  A
O919       Co922   1.962       .  S
Co920       O924   1.981       .  S
Co921       O924   1.998       .  S
Co922       O924   2.009       .  S
Co923       O924   2.047       .  S
C925       C2617   1.495       .  S
C926       C3736   1.483       .  S
C927       C3829   1.464       .  S
C928       C3136   1.495       .  S
O929        C937   1.274       .  A
O929       Co949   2.082       .  S
O930        C938   1.265       .  A
O930       Co950   2.013       .  S
O931        C939   1.260       .  A
O931       Co951   1.961       .  S
O932        C940   1.257       .  A
O932       Co952   1.965       .  S
O933        C939   1.272       .  A
O933       Co950   2.010       .  S
O934        C940   1.270       .  A
O934       Co949   2.018       .  S
O935        C938   1.259       .  A
O935       Co952   1.987       .  S
O936        C937   1.247       .  A
O936       Co951   1.942       .  S
C937       C4372   1.520       .  S
C938       C2800   1.489       .  S
C939       C3844   1.493       .  S
C940       C3040   1.485       .  S
O941        C954   1.268       .  A
O941       Co949   1.986       .  S
O942        C955   1.257       .  A
O942       Co950   1.974       .  S
O943        C956   1.282       .  A
O943       Co951   2.038       .  S
O944        C957   1.275       .  A
O944       Co952   2.060       .  S
O945        C957   1.251       .  A
O945       Co950   1.951       .  S
O946        C956   1.268       .  A
O946       Co949   1.896       .  S
O947        C954   1.277       .  A
O947       Co952   2.048       .  S
O948        C955   1.246       .  A
O948       Co951   1.944       .  S
Co949       O953   2.028       .  S
Co950       O953   2.106       .  S
Co951       O953   2.060       .  S
Co952       O953   2.092       .  S
C954       C2605   1.519       .  S
C955       C2644   1.467       .  S
C956       C2701   1.468       .  S
C957       C2596   1.506       .  S
O958        C966   1.249       .  A
O958       Co978   1.953       .  S
O959        C967   1.266       .  A
O959       Co979   1.973       .  S
O960        C968   1.298       .  A
O960       Co980   2.115       .  S
O961        C969   1.275       .  A
O961       Co981   2.058       .  S
O962        C968   1.263       .  A
O962       Co979   1.893       .  S
O963        C969   1.254       .  A
O963       Co978   1.956       .  S
O964        C967   1.278       .  A
O964       Co981   2.048       .  S
O965        C966   1.260       .  A
O965       Co980   2.018       .  S
C966       C2665   1.462       .  S
C967       C2593   1.506       .  S
C968       C2632   1.494       .  S
C969       C2584   1.497       .  S
O970        C983   1.273       .  A
O970       Co978   2.012       .  S
O971        C984   1.299       .  A
O971       Co979   2.112       .  S
O972        C985   1.276       .  A
O972       Co980   1.993       .  S
O973        C986   1.259       .  A
O973       Co981   1.981       .  S
O974        C986   1.265       .  A
O974       Co979   2.013       .  S
O975        C985   1.283       .  A
O975       Co978   2.050       .  S
O976        C983   1.261       .  A
O976       Co981   1.966       .  S
O977        C984   1.270       .  A
O977       Co980   1.889       .  S
Co978       O982   2.020       .  S
Co979       O982   2.009       .  S
Co980       O982   2.043       .  S
Co981       O982   2.074       .  S
C983       C2569   1.480       .  S
C984       C3745   1.497       .  S
C985       C4060   1.513       .  S
C986       C2776   1.495       .  S
O987        C995   1.267       .  A
O987      Co1007   1.911       .  S
O988        C996   1.254       .  A
O988      Co1008   1.963       .  S
O989        C997   1.240       .  A
O989      Co1009   1.921       .  S
O990        C998   1.282       .  A
O990      Co1010   2.061       .  S
O991        C997   1.260       .  A
O991      Co1008   2.006       .  S
O992        C998   1.262       .  A
O992      Co1007   1.971       .  S
O993        C996   1.273       .  A
O993      Co1010   2.058       .  S
O994        C995   1.279       .  A
O994      Co1009   2.027       .  S
C995       C2716   1.456       .  S
C996       C2581   1.501       .  S
C997       C2656   1.466       .  S
C998       C2608   1.517       .  S
O999       C1012   1.274       .  A
O999      Co1007   2.040       .  S
O1000      C1013   1.270       .  A
O1000     Co1008   2.024       .  S
O1001      C1014   1.241       .  A
O1001     Co1009   1.929       .  S
O1002      C1015   1.268       .  A
O1002     Co1010   1.999       .  S
O1003      C1015   1.262       .  A
O1003     Co1008   1.990       .  S
O1004      C1014   1.278       .  A
O1004     Co1007   2.081       .  S
O1005      C1012   1.260       .  A
O1005     Co1010   1.981       .  S
O1006      C1013   1.253       .  A
O1006     Co1009   1.944       .  S
Co1007     O1011   2.029       .  S
Co1008     O1011   2.111       .  S
Co1009     O1011   2.033       .  S
Co1010     O1011   2.087       .  S
C1012      C3025   1.515       .  S
C1013      C3604   1.490       .  S
C1014      C3964   1.514       .  S
C1015      C2557   1.495       .  S
O1016      C1024   1.235       .  A
O1016     Co1036   1.915       .  S
O1017      C1025   1.256       .  A
O1017     Co1037   1.963       .  S
O1018      C1026   1.271       .  A
O1018     Co1038   2.030       .  S
O1019      C1027   1.273       .  A
O1019     Co1039   2.027       .  S
O1020      C1026   1.260       .  A
O1020     Co1037   1.962       .  S
O1021      C1027   1.261       .  A
O1021     Co1036   1.988       .  S
O1022      C1025   1.265       .  A
O1022     Co1039   2.018       .  S
O1023      C1024   1.264       .  A
O1023     Co1038   2.044       .  S
C1024      C2524   1.467       .  S
C1025      C2545   1.493       .  S
C1026      C2509   1.489       .  S
C1027      C2533   1.497       .  S
O1028      C1041   1.248       .  A
O1028     Co1036   1.934       .  S
O1029      C1042   1.278       .  A
O1029     Co1037   2.018       .  S
O1030      C1043   1.276       .  A
O1030     Co1038   1.932       .  S
O1031      C1044   1.263       .  A
O1031     Co1039   1.956       .  S
O1032      C1044   1.277       .  A
O1032     Co1037   2.029       .  S
O1033      C1043   1.292       .  A
O1033     Co1036   2.068       .  S
O1034      C1041   1.265       .  A
O1034     Co1039   2.016       .  S
O1035      C1042   1.277       .  A
O1035     Co1038   1.991       .  S
Co1036     O1040   2.027       .  S
Co1037     O1040   2.019       .  S
Co1038     O1040   2.026       .  S
Co1039     O1040   2.104       .  S
C1041      C2497   1.469       .  S
C1042      C3805   1.506       .  S
C1043      C4576   1.483       .  S
C1044      C2620   1.493       .  S
O1045      C1053   1.294       .  A
O1045     Co1065   2.075       .  S
O1046      C1054   1.254       .  A
O1046     Co1066   1.953       .  S
O1047      C1055   1.250       .  A
O1047     Co1067   1.991       .  S
O1048      C1056   1.275       .  A
O1048     Co1068   2.033       .  S
O1049      C1055   1.257       .  A
O1049     Co1066   1.993       .  S
O1050      C1056   1.264       .  A
O1050     Co1065   1.966       .  S
O1051      C1054   1.285       .  A
O1051     Co1068   2.100       .  S
O1052      C1053   1.271       .  A
O1052     Co1067   1.936       .  S
C1053      C4120   1.504       .  S
C1054      C2449   1.528       .  S
C1055      C3613   1.488       .  S
C1056      C2437   1.502       .  S
O1057      C1070   1.266       .  A
O1057     Co1065   2.048       .  S
O1058      C1071   1.276       .  A
O1058     Co1066   2.004       .  S
O1059      C1072   1.266       .  A
O1059     Co1067   1.957       .  S
O1060      C1073   1.242       .  A
O1060     Co1068   1.937       .  S
O1061      C1073   1.274       .  A
O1061     Co1066   2.074       .  S
O1062      C1072   1.280       .  A
O1062     Co1065   2.079       .  S
O1063      C1070   1.246       .  A
O1063     Co1068   1.956       .  S
O1064      C1071   1.287       .  A
O1064     Co1067   2.024       .  S
Co1065     O1069   2.190       .  S
Co1066     O1069   2.088       .  S
Co1067     O1069   1.955       .  S
Co1068     O1069   2.059       .  S
C1070      C2536   1.501       .  S
C1071      C2461   1.482       .  S
C1072      C2473   1.502       .  S
C1073      C2485   1.503       .  S
O1074      C1082   1.271       .  A
O1074     Co1094   1.998       .  S
O1075      C1083   1.259       .  A
O1075     Co1095   2.001       .  S
O1076      C1084   1.268       .  A
O1076     Co1096   1.863       .  S
O1077      C1085   1.259       .  A
O1077     Co1097   1.940       .  S
O1078      C1084   1.303       .  A
O1078     Co1095   2.118       .  S
O1079      C1085   1.279       .  A
O1079     Co1094   2.025       .  S
O1080      C1083   1.258       .  A
O1080     Co1097   1.995       .  S
O1081      C1082   1.277       .  A
O1081     Co1096   2.006       .  S
C1082      C4456   1.500       .  S
C1083      C2692   1.499       .  S
C1084      C4336   1.481       .  S
C1085      C2401   1.451       .  S
O1086      C1099   1.253       .  A
O1086     Co1094   1.953       .  S
O1087      C1100   1.260       .  A
O1087     Co1095   1.889       .  S
O1088      C1101   1.263       .  A
O1088     Co1096   1.988       .  S
O1089      C1102   1.282       .  A
O1089     Co1097   2.045       .  S
O1090      C1102   1.263       .  A
O1090     Co1095   1.945       .  S
O1091      C1101   1.262       .  A
O1091     Co1094   1.974       .  S
O1092      C1099   1.273       .  A
O1092     Co1097   2.052       .  S
O1093      C1100   1.296       .  A
O1093     Co1096   2.124       .  S
Co1094     O1098   2.016       .  S
Co1095     O1098   1.988       .  S
Co1096     O1098   1.991       .  S
Co1097     O1098   2.045       .  S
C1099      C2488   1.487       .  S
C1100      C2425   1.481       .  S
C1101      C2416   1.475       .  S
C1102      C2548   1.489       .  S
O1103      C1111   1.245       .  A
O1103     Co1123   1.930       .  S
O1104      C1112   1.284       .  A
O1104     Co1124   2.037       .  S
O1105      C1113   1.263       .  A
O1105     Co1125   2.002       .  S
O1106      C1114   1.261       .  A
O1106     Co1126   2.020       .  S
O1107      C1113   1.269       .  A
O1107     Co1124   1.998       .  S
O1108      C1114   1.251       .  A
O1108     Co1123   1.960       .  S
O1109      C1112   1.267       .  A
O1109     Co1126   1.975       .  S
O1110      C1111   1.272       .  A
O1110     Co1125   2.035       .  S
C1111      C2521   1.464       .  S
C1112      C2377   1.513       .  S
C1113      C2476   1.502       .  S
C1114      C2392   1.486       .  S
O1115      C1128   1.276       .  A
O1115     Co1123   2.016       .  S
O1116      C1129   1.281       .  A
O1116     Co1124   1.943       .  S
O1117      C1130   1.261       .  A
O1117     Co1125   1.947       .  S
O1118      C1131   1.249       .  A
O1118     Co1126   1.965       .  S
O1119      C1131   1.248       .  A
O1119     Co1124   1.990       .  S
O1120      C1130   1.286       .  A
O1120     Co1123   2.067       .  S
O1121      C1128   1.268       .  A
O1121     Co1126   1.972       .  S
O1122      C1129   1.293       .  A
O1122     Co1125   2.054       .  S
Co1123     O1127   2.029       .  S
Co1124     O1127   1.969       .  S
Co1125     O1127   2.093       .  S
Co1126     O1127   2.097       .  S
C1128      C2365   1.495       .  S
C1129      C4129   1.493       .  S
C1130      C4588   1.506       .  S
C1131      C2572   1.463       .  S
O1132      C1140   1.254       .  A
O1132     Co1152   1.971       .  S
O1133      C1141   1.266       .  A
O1133     Co1153   1.964       .  S
O1134      C1142   1.300       .  A
O1134     Co1154   2.131       .  S
O1135      C1143   1.275       .  A
O1135     Co1155   2.061       .  S
O1136      C1142   1.262       .  A
O1136     Co1153   1.894       .  S
O1137      C1143   1.248       .  A
O1137     Co1152   1.937       .  S
O1138      C1141   1.277       .  A
O1138     Co1155   2.031       .  S
O1139      C1140   1.261       .  A
O1139     Co1154   2.000       .  S
C1140      C2428   1.484       .  S
C1141      C2389   1.483       .  S
C1142      C2512   1.480       .  S
C1143      C2353   1.481       .  S
O1144      C1157   1.277       .  A
O1144     Co1152   2.029       .  S
O1145      C1158   1.299       .  A
O1145     Co1153   2.105       .  S
O1146      C1159   1.276       .  A
O1146     Co1154   1.997       .  S
O1147      C1160   1.262       .  A
O1147     Co1155   2.001       .  S
O1148      C1160   1.265       .  A
O1148     Co1153   2.009       .  S
O1149      C1159   1.277       .  A
O1149     Co1152   2.018       .  S
O1150      C1157   1.262       .  A
O1150     Co1155   1.952       .  S
O1151      C1158   1.265       .  A
O1151     Co1154   1.867       .  S
Co1152     O1156   2.010       .  S
Co1153     O1156   1.991       .  S
Co1154     O1156   2.001       .  S
Co1155     O1156   2.061       .  S
C1157      C2329   1.478       .  S
C1158      C3817   1.460       .  S
C1159      C4348   1.502       .  S
C1160      C2341   1.507       .  S
O1161      C1169   1.276       .  A
O1161     Co1181   2.043       .  S
O1162      C1170   1.273       .  A
O1162     Co1182   2.022       .  S
O1163      C1171   1.252       .  A
O1163     Co1183   1.966       .  S
O1164      C1172   1.282       .  A
O1164     Co1184   1.952       .  S
O1165      C1171   1.269       .  A
O1165     Co1182   2.024       .  S
O1166      C1172   1.286       .  A
O1166     Co1181   2.031       .  S
O1167      C1170   1.258       .  A
O1167     Co1184   1.975       .  S
O1168      C1169   1.245       .  A
O1168     Co1183   1.919       .  S
C1169      C4468   1.489       .  S
C1170      C2560   1.495       .  S
C1171      C3628   1.480       .  S
C1172      C2317   1.497       .  S
O1173      C1186   1.259       .  A
O1173     Co1181   2.001       .  S
O1174      C1187   1.275       .  A
O1174     Co1182   2.034       .  S
O1175      C1188   1.255       .  A
O1175     Co1183   1.953       .  S
O1176      C1189   1.281       .  A
O1176     Co1184   2.052       .  S
O1177      C1189   1.260       .  A
O1177     Co1182   1.963       .  S
O1178      C1188   1.267       .  A
O1178     Co1181   2.008       .  S
O1179      C1186   1.250       .  A
O1179     Co1184   1.970       .  S
O1180      C1187   1.251       .  A
O1180     Co1183   1.937       .  S
Co1181     O1185   2.193       .  S
Co1182     O1185   2.112       .  S
Co1183     O1185   1.946       .  S
Co1184     O1185   1.972       .  S
C1186      C2356   1.488       .  S
C1187      C2464   1.483       .  S
C1188      C2413   1.475       .  S
C1189      C2380   1.496       .  S
O1190      C1198   1.293       .  A
O1190     Co1210   2.071       .  S
O1191      C1199   1.280       .  A
O1191     Co1211   2.040       .  S
O1192      C1200   1.280       .  A
O1192     Co1212   2.005       .  S
O1193      C1201   1.267       .  A
O1193     Co1213   2.013       .  S
O1194      C1200   1.273       .  A
O1194     Co1211   2.012       .  S
O1195      C1201   1.250       .  A
O1195     Co1210   1.931       .  S
O1196      C1199   1.263       .  A
O1196     Co1213   1.968       .  S
O1197      C1198   1.269       .  A
O1197     Co1212   1.891       .  S
C1198      C4552   1.467       .  S
C1199      C2884   1.493       .  S
C1200      C3757   1.515       .  S
C1201      C2257   1.477       .  S
O1202      C1215   1.263       .  A
O1202     Co1210   1.988       .  S
O1203      C1216   1.250       .  A
O1203     Co1211   1.958       .  S
O1204      C1217   1.271       .  A
O1204     Co1212   2.070       .  S
O1205      C1218   1.264       .  A
O1205     Co1213   2.025       .  S
O1206      C1218   1.240       .  A
O1206     Co1211   1.919       .  S
O1207      C1217   1.237       .  A
O1207     Co1210   1.923       .  S
O1208      C1215   1.278       .  A
O1208     Co1213   2.046       .  S
O1209      C1216   1.261       .  A
O1209     Co1212   2.013       .  S
Co1210     O1214   2.031       .  S
Co1211     O1214   2.013       .  S
Co1212     O1214   2.017       .  S
Co1213     O1214   2.119       .  S
C1215      C2293   1.522       .  S
C1216      C2281   1.465       .  S
C1217      C2269   1.478       .  S
C1218      C2305   1.470       .  S
O1219      C1227   1.255       .  A
O1219     Co1239   2.000       .  S
O1220      C1228   1.270       .  A
O1220     Co1240   1.979       .  S
O1221      C1229   1.291       .  A
O1221     Co1241   2.045       .  S
O1222      C1230   1.276       .  A
O1222     Co1242   2.006       .  S
O1223      C1229   1.273       .  A
O1223     Co1240   1.914       .  S
O1224      C1230   1.281       .  A
O1224     Co1239   2.030       .  S
O1225      C1228   1.262       .  A
O1225     Co1242   1.971       .  S
O1226      C1227   1.247       .  A
O1226     Co1241   1.948       .  S
C1227      C2224   1.467       .  S
C1228      C2308   1.467       .  S
C1229      C2209   1.488       .  S
C1230      C2245   1.516       .  S
O1231      C1244   1.260       .  A
O1231     Co1239   1.961       .  S
O1232      C1245   1.263       .  A
O1232     Co1240   2.014       .  S
O1233      C1246   1.286       .  A
O1233     Co1241   2.033       .  S
O1234      C1247   1.277       .  A
O1234     Co1242   2.010       .  S
O1235      C1247   1.273       .  A
O1235     Co1240   2.000       .  S
O1236      C1246   1.279       .  A
O1236     Co1239   1.916       .  S
O1237      C1244   1.262       .  A
O1237     Co1242   1.972       .  S
O1238      C1245   1.244       .  A
O1238     Co1241   1.947       .  S
Co1239     O1243   1.944       .  S
Co1240     O1243   1.930       .  S
Co1241     O1243   2.092       .  S
Co1242     O1243   2.016       .  S
C1244      C2404   1.464       .  S
C1245      C2233   1.475       .  S
C1246      C4429   1.478       .  S
C1247      C2944   1.501       .  S
O1248      C1256   1.279       .  A
O1248     Co1268   2.066       .  S
O1249      C1257   1.272       .  A
O1249     Co1269   2.065       .  S
O1250      C1258   1.239       .  A
O1250     Co1270   1.877       .  S
O1251      C1259   1.244       .  A
O1251     Co1271   1.953       .  S
O1252      C1258   1.291       .  A
O1252     Co1269   2.115       .  S
O1253      C1259   1.272       .  A
O1253     Co1268   2.072       .  S
O1254      C1257   1.250       .  A
O1254     Co1271   1.963       .  S
O1255      C1256   1.236       .  A
O1255     Co1270   1.911       .  S
C1256      C2197   1.485       .  S
C1257      C2248   1.525       .  S
C1258      C2185   1.495       .  S
C1259      C2296   1.510       .  S
O1260      C1273   1.250       .  A
O1260     Co1268   1.941       .  S
O1261      C1274   1.253       .  A
O1261     Co1269   1.978       .  S
O1262      C1275   1.268       .  A
O1262     Co1270   2.041       .  S
O1263      C1276   1.280       .  A
O1263     Co1271   2.074       .  S
O1264      C1276   1.261       .  A
O1264     Co1269   1.979       .  S
O1265      C1275   1.268       .  A
O1265     Co1268   2.018       .  S
O1266      C1273   1.284       .  A
O1266     Co1271   2.085       .  S
O1267      C1274   1.264       .  A
O1267     Co1270   2.019       .  S
Co1268     O1272   2.156       .  S
Co1269     O1272   2.141       .  S
Co1270     O1272   1.993       .  S
Co1271     O1272   2.083       .  S
C1273      C2173   1.496       .  S
C1274      C3640   1.479       .  S
C1275      C3928   1.529       .  S
C1276      C2452   1.527       .  S
O1277      C1285   1.252       .  A
O1277     Co1297   1.953       .  S
O1278      C1286   1.276       .  A
O1278     Co1298   2.005       .  S
O1279      C1287   1.260       .  A
O1279     Co1299   1.995       .  S
O1280      C1288   1.260       .  A
O1280     Co1300   2.021       .  S
O1281      C1287   1.265       .  A
O1281     Co1298   2.004       .  S
O1282      C1288   1.251       .  A
O1282     Co1297   1.968       .  S
O1283      C1286   1.268       .  A
O1283     Co1300   1.967       .  S
O1284      C1285   1.272       .  A
O1284     Co1299   2.029       .  S
C1285      C2221   1.484       .  S
C1286      C2149   1.488       .  S
C1287      C2188   1.492       .  S
C1288      C2161   1.489       .  S
O1289      C1302   1.281       .  A
O1289     Co1297   2.028       .  S
O1290      C1303   1.279       .  A
O1290     Co1298   1.941       .  S
O1291      C1304   1.253       .  A
O1291     Co1299   1.921       .  S
O1292      C1305   1.250       .  A
O1292     Co1300   1.970       .  S
O1293      C1305   1.256       .  A
O1293     Co1298   2.008       .  S
O1294      C1304   1.284       .  A
O1294     Co1297   2.067       .  S
O1295      C1302   1.265       .  A
O1295     Co1300   1.956       .  S
O1296      C1303   1.285       .  A
O1296     Co1299   2.027       .  S
Co1297     O1301   2.048       .  S
Co1298     O1301   1.973       .  S
Co1299     O1301   2.075       .  S
Co1300     O1301   2.089       .  S
C1302      C2137   1.484       .  S
C1303      C3652   1.486       .  S
C1304      C4444   1.489       .  S
C1305      C2752   1.491       .  S
O1306      C1314   1.285       .  A
O1306     Co1326   2.073       .  S
O1307      C1315   1.254       .  A
O1307     Co1327   2.009       .  S
O1308      C1316   1.289       .  A
O1308     Co1328   2.029       .  S
O1309      C1317   1.269       .  A
O1309     Co1329   1.973       .  S
O1310      C1316   1.278       .  A
O1310     Co1327   1.948       .  S
O1311      C1317   1.278       .  A
O1311     Co1326   2.011       .  S
O1312      C1315   1.256       .  A
O1312     Co1329   2.001       .  S
O1313      C1314   1.251       .  A
O1313     Co1328   1.918       .  S
C1314      C4561   1.486       .  S
C1315      C2764   1.509       .  S
C1316      C3937   1.484       .  S
C1317      C2368   1.492       .  S
O1318      C1331   1.253       .  A
O1318     Co1326   1.965       .  S
O1319      C1332   1.266       .  A
O1319     Co1327   2.011       .  S
O1320      C1333   1.273       .  A
O1320     Co1328   2.056       .  S
O1321      C1334   1.271       .  A
O1321     Co1329   1.973       .  S
O1322      C1334   1.272       .  A
O1322     Co1327   1.995       .  S
O1323      C1333   1.251       .  A
O1323     Co1326   1.956       .  S
O1324      C1331   1.266       .  A
O1324     Co1329   2.039       .  S
O1325      C1332   1.255       .  A
O1325     Co1328   1.952       .  S
Co1326     O1330   2.052       .  S
Co1327     O1330   1.981       .  S
Co1328     O1330   2.072       .  S
Co1329     O1330   2.097       .  S
C1331      C2125   1.498       .  S
C1332      C2200   1.479       .  S
C1333      C2272   1.475       .  S
C1334      C2152   1.489       .  S
O1335      C1343   1.252       .  A
O1335     Co1355   1.942       .  S
O1336      C1344   1.252       .  A
O1336     Co1356   1.944       .  S
O1337      C1345   1.269       .  A
O1337     Co1357   2.030       .  S
O1338      C1346   1.277       .  A
O1338     Co1358   2.077       .  S
O1339      C1345   1.257       .  A
O1339     Co1356   1.955       .  S
O1340      C1346   1.252       .  A
O1340     Co1355   1.941       .  S
O1341      C1344   1.272       .  A
O1341     Co1358   2.053       .  S
O1342      C1343   1.270       .  A
O1342     Co1357   2.043       .  S
C1343      C2284   1.477       .  S
C1344      C2164   1.491       .  S
C1345      C2212   1.485       .  S
C1346      C2128   1.494       .  S
O1347      C1360   1.270       .  A
O1347     Co1355   2.031       .  S
O1348      C1361   1.271       .  A
O1348     Co1356   2.020       .  S
O1349      C1362   1.266       .  A
O1349     Co1357   1.973       .  S
O1350      C1363   1.262       .  A
O1350     Co1358   1.971       .  S
O1351      C1363   1.275       .  A
O1351     Co1356   2.038       .  S
O1352      C1362   1.273       .  A
O1352     Co1355   2.020       .  S
O1353      C1360   1.264       .  A
O1353     Co1358   1.987       .  S
O1354      C1361   1.270       .  A
O1354     Co1357   1.995       .  S
Co1355     O1359   2.086       .  S
Co1356     O1359   2.090       .  S
Co1357     O1359   2.154       .  S
Co1358     O1359   2.142       .  S
C1360      C2344   1.509       .  S
C1361      C2113   1.513       .  S
C1362      C3769   1.490       .  S
C1363      C2101   1.501       .  S
O1364      C1372   1.268       .  A
O1364     Co1384   2.004       .  S
O1365      C1373   1.272       .  A
O1365     Co1385   2.017       .  S
O1366      C1374   1.245       .  A
O1366     Co1386   1.952       .  S
O1367      C1375   1.257       .  A
O1367     Co1387   1.983       .  S
O1368      C1374   1.273       .  A
O1368     Co1385   2.082       .  S
O1369      C1375   1.260       .  A
O1369     Co1384   1.987       .  S
O1370      C1373   1.256       .  A
O1370     Co1387   1.945       .  S
O1371      C1372   1.255       .  A
O1371     Co1386   1.919       .  S
C1372      C4600   1.462       .  S
C1373      C3148   1.472       .  S
C1374      C4288   1.519       .  S
C1375      C2500   1.486       .  S
O1376      C1389   1.251       .  A
O1376     Co1384   1.946       .  S
O1377      C1390   1.271       .  A
O1377     Co1385   1.910       .  S
O1378      C1391   1.249       .  A
O1378     Co1386   1.955       .  S
O1379      C1392   1.272       .  A
O1379     Co1387   2.028       .  S
O1380      C1392   1.266       .  A
O1380     Co1385   1.969       .  S
O1381      C1391   1.253       .  A
O1381     Co1384   1.971       .  S
O1382      C1389   1.276       .  A
O1382     Co1387   2.063       .  S
O1383      C1390   1.281       .  A
O1383     Co1386   2.038       .  S
Co1384     O1388   2.097       .  S
Co1385     O1388   2.017       .  S
Co1386     O1388   2.043       .  S
Co1387     O1388   2.084       .  S
C1389      C2089   1.488       .  S
C1390      C2068   1.476       .  S
C1391      C2053   1.463       .  S
C1392      C2077   1.499       .  S
O1393      C1401   1.281       .  A
O1393     Co1413   2.042       .  S
O1394      C1402   1.293       .  A
O1394     Co1414   2.085       .  S
O1395      C1403   1.252       .  A
O1395     Co1415   1.967       .  S
O1396      C1404   1.272       .  A
O1396     Co1416   1.990       .  S
O1397      C1403   1.267       .  A
O1397     Co1414   2.030       .  S
O1398      C1404   1.276       .  A
O1398     Co1413   2.021       .  S
O1399      C1402   1.273       .  A
O1399     Co1416   1.922       .  S
O1400      C1401   1.254       .  A
O1400     Co1415   1.948       .  S
C1401      C4213   1.496       .  S
C1402      C2440   1.490       .  S
C1403      C4096   1.493       .  S
C1404      C2008   1.507       .  S
O1405      C1418   1.258       .  A
O1405     Co1413   1.971       .  S
O1406      C1419   1.268       .  A
O1406     Co1414   1.976       .  S
O1407      C1420   1.275       .  A
O1407     Co1415   2.049       .  S
O1408      C1421   1.296       .  A
O1408     Co1416   2.111       .  S
O1409      C1421   1.266       .  A
O1409     Co1414   1.903       .  S
O1410      C1420   1.257       .  A
O1410     Co1413   1.964       .  S
O1411      C1418   1.271       .  A
O1411     Co1416   2.040       .  S
O1412      C1419   1.278       .  A
O1412     Co1415   2.032       .  S
Co1413     O1417   2.023       .  S
Co1414     O1417   2.010       .  S
Co1415     O1417   2.045       .  S
Co1416     O1417   2.035       .  S
C1418      C2041   1.492       .  S
C1419      C2032   1.478       .  S
C1420      C2017   1.495       .  S
C1421      C2092   1.503       .  S
O1422      C1430   1.257       .  A
O1422     Co1442   1.954       .  S
O1423      C1431   1.242       .  A
O1423     Co1443   1.921       .  S
O1424      C1432   1.268       .  A
O1424     Co1444   2.046       .  S
O1425      C1433   1.271       .  A
O1425     Co1445   2.068       .  S
O1426      C1432   1.249       .  A
O1426     Co1443   1.951       .  S
O1427      C1433   1.254       .  A
O1427     Co1442   1.959       .  S
O1428      C1431   1.284       .  A
O1428     Co1445   2.099       .  S
O1429      C1430   1.275       .  A
O1429     Co1444   2.039       .  S
C1430      C1993   1.492       .  S
C1431      C2080   1.507       .  S
C1432      C1981   1.493       .  S
C1433      C2044   1.502       .  S
O1434      C1447   1.278       .  A
O1434     Co1442   2.056       .  S
O1435      C1448   1.275       .  A
O1435     Co1443   2.030       .  S
O1436      C1449   1.263       .  A
O1436     Co1444   1.973       .  S
O1437      C1450   1.252       .  A
O1437     Co1445   1.956       .  S
O1438      C1450   1.271       .  A
O1438     Co1443   2.052       .  S
O1439      C1449   1.268       .  A
O1439     Co1442   2.014       .  S
O1440      C1447   1.257       .  A
O1440     Co1445   1.980       .  S
O1441      C1448   1.267       .  A
O1441     Co1444   1.985       .  S
Co1442     O1446   2.102       .  S
Co1443     O1446   2.089       .  S
Co1444     O1446   2.143       .  S
Co1445     O1446   2.126       .  S
C1447      C1969   1.499       .  S
C1448      C4408   1.508       .  S
C1449      C4477   1.494       .  S
C1450      C3196   1.504       .  S
O1451      C1459   1.281       .  A
O1451     Co1471   2.069       .  S
O1452      C1460   1.275       .  A
O1452     Co1472   2.042       .  S
O1453      C1461   1.261       .  A
O1453     Co1473   1.969       .  S
O1454      C1462   1.264       .  A
O1454     Co1474   1.981       .  S
O1455      C1461   1.271       .  A
O1455     Co1472   2.013       .  S
O1456      C1462   1.264       .  A
O1456     Co1471   1.995       .  S
O1457      C1460   1.260       .  A
O1457     Co1474   1.972       .  S
O1458      C1459   1.261       .  A
O1458     Co1473   1.964       .  S
C1459      C4420   1.511       .  S
C1460      C1936   1.507       .  S
C1461      C4297   1.487       .  S
C1462      C2332   1.481       .  S
O1463      C1476   1.257       .  A
O1463     Co1471   1.957       .  S
O1464      C1477   1.260       .  A
O1464     Co1472   1.952       .  S
O1465      C1478   1.273       .  A
O1465     Co1473   2.053       .  S
O1466      C1479   1.280       .  A
O1466     Co1474   2.083       .  S
O1467      C1479   1.256       .  A
O1467     Co1472   1.959       .  S
O1468      C1478   1.252       .  A
O1468     Co1471   1.947       .  S
O1469      C1476   1.272       .  A
O1469     Co1474   2.033       .  S
O1470      C1477   1.266       .  A
O1470     Co1473   2.009       .  S
Co1471     O1475   2.089       .  S
Co1472     O1475   2.095       .  S
Co1473     O1475   2.129       .  S
Co1474     O1475   2.123       .  S
C1476      C1960   1.476       .  S
C1477      C2065   1.461       .  S
C1478      C1984   1.481       .  S
C1479      C1948   1.509       .  S
O1480      C1488   1.257       .  A
O1480     Co1500   1.975       .  S
O1481      C1489   1.280       .  A
O1481     Co1501   2.033       .  S
O1482      C1490   1.265       .  A
O1482     Co1502   2.022       .  S
O1483      C1491   1.262       .  A
O1483     Co1503   2.018       .  S
O1484      C1490   1.260       .  A
O1484     Co1501   1.991       .  S
O1485      C1491   1.248       .  A
O1485     Co1500   1.951       .  S
O1486      C1489   1.264       .  A
O1486     Co1503   1.966       .  S
O1487      C1488   1.264       .  A
O1487     Co1502   2.001       .  S
C1488      C1996   1.468       .  S
C1489      C1921   1.496       .  S
C1490      C2020   1.508       .  S
C1491      C1957   1.471       .  S
O1492      C1505   1.280       .  A
O1492     Co1500   2.053       .  S
O1493      C1506   1.280       .  A
O1493     Co1501   1.966       .  S
O1494      C1507   1.261       .  A
O1494     Co1502   1.948       .  S
O1495      C1508   1.253       .  A
O1495     Co1503   1.981       .  S
O1496      C1508   1.250       .  A
O1496     Co1501   1.988       .  S
O1497      C1507   1.277       .  A
O1497     Co1500   2.043       .  S
O1498      C1505   1.262       .  A
O1498     Co1503   1.967       .  S
O1499      C1506   1.284       .  A
O1499     Co1502   2.032       .  S
Co1500     O1504   2.077       .  S
Co1501     O1504   1.993       .  S
Co1502     O1504   2.096       .  S
Co1503     O1504   2.102       .  S
C1505      C2320   1.492       .  S
C1506      C4225   1.500       .  S
C1507      C4492   1.493       .  S
C1508      C3016   1.479       .  S
O1509      C1517   1.271       .  A
O1509     Co1529   2.023       .  S
O1510      C1518   1.273       .  A
O1510     Co1530   2.043       .  S
O1511      C1519   1.266       .  A
O1511     Co1531   1.984       .  S
O1512      C1520   1.258       .  A
O1512     Co1532   1.987       .  S
O1513      C1519   1.274       .  A
O1513     Co1530   2.034       .  S
O1514      C1520   1.276       .  A
O1514     Co1529   2.059       .  S
O1515      C1518   1.261       .  A
O1515     Co1532   1.977       .  S
O1516      C1517   1.265       .  A
O1516     Co1531   1.974       .  S
C1517      C4609   1.491       .  S
C1518      C3064   1.505       .  S
C1519      C4105   1.506       .  S
C1520      C1909   1.506       .  S
O1521      C1534   1.248       .  A
O1521     Co1529   1.947       .  S
O1522      C1535   1.254       .  A
O1522     Co1530   1.958       .  S
O1523      C1536   1.271       .  A
O1523     Co1531   2.030       .  S
O1524      C1537   1.274       .  A
O1524     Co1532   2.062       .  S
O1525      C1537   1.250       .  A
O1525     Co1530   1.941       .  S
O1526      C1536   1.255       .  A
O1526     Co1529   1.956       .  S
O1527      C1534   1.280       .  A
O1527     Co1532   2.096       .  S
O1528      C1535   1.274       .  A
O1528     Co1531   2.043       .  S
Co1529     O1533   2.098       .  S
Co1530     O1533   2.098       .  S
Co1531     O1533   2.127       .  S
Co1532     O1533   2.136       .  S
C1534      C1945   1.509       .  S
C1535      C2029   1.495       .  S
C1536      C2056   1.480       .  S
C1537      C1924   1.490       .  S
O1538      C1546   1.259       .  A
O1538     Co1558   1.979       .  S
O1539      C1547   1.265       .  A
O1539     Co1559   1.966       .  S
O1540      C1548   1.301       .  A
O1540     Co1560   2.136       .  S
O1541      C1549   1.268       .  A
O1541     Co1561   2.033       .  S
O1542      C1548   1.264       .  A
O1542     Co1559   1.901       .  S
O1543      C1549   1.250       .  A
O1543     Co1558   1.946       .  S
O1544      C1547   1.283       .  A
O1544     Co1561   2.065       .  S
O1545      C1546   1.266       .  A
O1545     Co1560   2.014       .  S
C1546      C1876   1.497       .  S
C1547      C1897   1.509       .  S
C1548      C1861   1.501       .  S
C1549      C1885   1.477       .  S
O1550      C1563   1.283       .  A
O1550     Co1558   2.048       .  S
O1551      C1564   1.298       .  A
O1551     Co1559   2.097       .  S
O1552      C1565   1.280       .  A
O1552     Co1560   2.020       .  S
O1553      C1566   1.260       .  A
O1553     Co1561   1.988       .  S
O1554      C1566   1.268       .  A
O1554     Co1559   2.032       .  S
O1555      C1565   1.273       .  A
O1555     Co1558   2.014       .  S
O1556      C1563   1.268       .  A
O1556     Co1561   1.970       .  S
O1557      C1564   1.272       .  A
O1557     Co1560   1.878       .  S
Co1558     O1562   2.021       .  S
Co1559     O1562   2.011       .  S
Co1560     O1562   2.025       .  S
Co1561     O1562   2.074       .  S
C1563      C2005   1.509       .  S
C1564      C3901   1.474       .  S
C1565      C4189   1.523       .  S
C1566      C2176   1.509       .  S
O1567      C1575   1.308       .  A
O1567     Co1587   2.015       .  S
O1568      C1576   1.275       .  A
O1568     Co1588   2.024       .  S
O1569      C1577   1.278       .  A
O1569     Co1589   1.993       .  S
O1570      C1578   1.261       .  A
O1570     Co1590   1.999       .  S
O1571      C1577   1.273       .  A
O1571     Co1588   2.011       .  S
O1572      C1578   1.262       .  A
O1572     Co1587   1.995       .  S
O1573      C1576   1.258       .  A
O1573     Co1590   1.946       .  S
O1574      C1575   1.299       .  A
O1574     Co1589   1.977       .  S
C1575      C4504   1.499       .  S
C1576      C3388   1.463       .  S
C1577      C1840   1.504       .  S
C1578      C1972   1.510       .  S
O1579      C1592   1.285       .  A
O1579     Co1587   2.037       .  S
O1580      C1593   1.253       .  A
O1580     Co1588   1.943       .  S
O1581      C1594   1.245       .  A
O1581     Co1589   2.032       .  S
O1582      C1595   1.271       .  A
O1582     Co1590   2.050       .  S
O1583      C1595   1.252       .  A
O1583     Co1588   1.942       .  S
O1584      C1594   1.232       .  A
O1584     Co1587   1.978       .  S
O1585      C1592   1.267       .  A
O1585     Co1590   1.960       .  S
O1586      C1593   1.279       .  A
O1586     Co1589   2.049       .  S
Co1587     O1591   1.996       .  S
Co1588     O1591   2.006       .  S
Co1589     O1591   2.099       .  S
Co1590     O1591   2.071       .  S
C1592      C1888   1.498       .  S
C1593      C1813   1.475       .  S
C1594      C1825   1.491       .  S
C1595      C1849   1.488       .  S
O1596      C1604   1.260       .  A
O1596     Co1616   1.981       .  S
O1597      C1605   1.280       .  A
O1597     Co1617   2.034       .  S
O1598      C1606   1.264       .  A
O1598     Co1618   2.026       .  S
O1599      C1607   1.272       .  A
O1599     Co1619   2.057       .  S
O1600      C1606   1.251       .  A
O1600     Co1617   1.971       .  S
O1601      C1607   1.251       .  A
O1601     Co1616   1.958       .  S
O1602      C1605   1.259       .  A
O1602     Co1619   1.944       .  S
O1603      C1604   1.267       .  A
O1603     Co1618   2.018       .  S
C1604      C1789   1.501       .  S
C1605      C1852   1.474       .  S
C1606      C1801   1.490       .  S
C1607      C1900   1.510       .  S
O1608      C1621   1.279       .  A
O1608     Co1616   2.037       .  S
O1609      C1622   1.283       .  A
O1609     Co1617   1.959       .  S
O1610      C1623   1.260       .  A
O1610     Co1618   1.951       .  S
O1611      C1624   1.264       .  A
O1611     Co1619   2.010       .  S
O1612      C1624   1.261       .  A
O1612     Co1617   2.009       .  S
O1613      C1623   1.276       .  A
O1613     Co1616   2.037       .  S
O1614      C1621   1.253       .  A
O1614     Co1619   1.934       .  S
O1615      C1622   1.283       .  A
O1615     Co1618   2.029       .  S
Co1616     O1620   2.073       .  S
Co1617     O1620   1.990       .  S
Co1618     O1620   2.096       .  S
Co1619     O1620   2.087       .  S
C1621      C2260   1.491       .  S
C1622      C4264   1.501       .  S
C1623      C4525   1.493       .  S
C1624      C3508   1.518       .  S
O1625      C1633   1.249       .  A
O1625     Co1645   1.981       .  S
O1626      C1634   1.251       .  A
O1626     Co1646   1.950       .  S
O1627      C1635   1.275       .  A
O1627     Co1647   2.027       .  S
O1628      C1636   1.254       .  A
O1628     Co1648   1.979       .  S
O1629      C1635   1.260       .  A
O1629     Co1646   1.962       .  S
O1630      C1636   1.256       .  A
O1630     Co1645   1.986       .  S
O1631      C1634   1.277       .  A
O1631     Co1648   2.062       .  S
O1632      C1633   1.245       .  A
O1632     Co1647   1.975       .  S
C1633      C4516   1.467       .  S
C1634      C3280   1.482       .  S
C1635      C4201   1.480       .  S
C1636      C2140   1.493       .  S
O1637      C1650   1.293       .  A
O1637     Co1645   2.059       .  S
O1638      C1651   1.261       .  A
O1638     Co1646   2.011       .  S
O1639      C1652   1.275       .  A
O1639     Co1647   1.904       .  S
O1640      C1653   1.247       .  A
O1640     Co1648   1.978       .  S
O1641      C1653   1.261       .  A
O1641     Co1646   2.021       .  S
O1642      C1652   1.298       .  A
O1642     Co1645   2.068       .  S
O1643      C1650   1.276       .  A
O1643     Co1648   1.931       .  S
O1644      C1651   1.258       .  A
O1644     Co1647   1.992       .  S
Co1645     O1649   2.227       .  S
Co1646     O1649   2.086       .  S
Co1647     O1649   1.945       .  S
Co1648     O1649   1.969       .  S
C1650      C1765   1.495       .  S
C1651      C1873   1.495       .  S
C1652      C1828   1.487       .  S
C1653      C1777   1.469       .  S
O1654      C1662   1.276       .  A
O1654     Co1674   2.024       .  S
O1655      C1663   1.268       .  A
O1655     Co1675   2.029       .  S
O1656      C1664   1.277       .  A
O1656     Co1676   1.983       .  S
O1657      C1665   1.242       .  A
O1657     Co1677   1.976       .  S
O1658      C1664   1.279       .  A
O1658     Co1675   2.020       .  S
O1659      C1665   1.248       .  A
O1659     Co1674   2.035       .  S
O1660      C1663   1.258       .  A
O1660     Co1677   1.973       .  S
O1661      C1662   1.266       .  A
O1661     Co1676   1.980       .  S
C1662      C4273   1.486       .  S
C1663      C2104   1.500       .  S
C1664      C1741   1.496       .  S
C1665      C1933   1.506       .  S
O1666      C1679   1.277       .  A
O1666     Co1674   1.855       .  S
O1667      C1680   1.251       .  A
O1667     Co1675   1.957       .  S
O1668      C1681   1.286       .  A
O1668     Co1676   2.059       .  S
O1669      C1682   1.267       .  A
O1669     Co1677   2.045       .  S
O1670      C1682   1.250       .  A
O1670     Co1675   1.945       .  S
O1671      C1681   1.269       .  A
O1671     Co1674   1.964       .  S
O1672      C1679   1.319       .  A
O1672     Co1677   2.165       .  S
O1673      C1680   1.260       .  A
O1673     Co1676   2.028       .  S
Co1674     O1678   1.988       .  S
Co1675     O1678   2.051       .  S
Co1676     O1678   2.092       .  S
Co1677     O1678   2.136       .  S
C1679      C1753   1.493       .  S
C1680      C1816   1.486       .  S
C1681      C1804   1.501       .  S
C1682      C1768   1.497       .  S
O1683      C1691   1.230       .  A
O1683     Co1703   1.983       .  S
O1684      C1692   1.253       .  A
O1684     Co1704   1.925       .  S
O1685      C1693   1.269       .  A
O1685     Co1705   2.043       .  S
O1686      C1694   1.272       .  A
O1686     Co1706   1.983       .  S
O1687      C1693   1.250       .  A
O1687     Co1704   1.959       .  S
O1688      C1694   1.278       .  A
O1688     Co1703   2.015       .  S
O1689      C1692   1.270       .  A
O1689     Co1706   2.028       .  S
O1690      C1691   1.241       .  A
O1690     Co1705   2.020       .  S
C1691      C1792   1.480       .  S
C1692      C1780   1.474       .  S
C1693      C1864   1.494       .  S
C1694      C1756   1.499       .  S
O1695      C1708   1.266       .  A
O1695     Co1703   2.001       .  S
O1696      C1709   1.276       .  A
O1696     Co1704   2.035       .  S
O1697      C1710   1.285       .  A
O1697     Co1705   1.934       .  S
O1698      C1711   1.264       .  A
O1698     Co1706   1.979       .  S
O1699      C1711   1.270       .  A
O1699     Co1704   2.016       .  S
O1700      C1710   1.299       .  A
O1700     Co1703   1.977       .  S
O1701      C1708   1.261       .  A
O1701     Co1706   2.007       .  S
O1702      C1709   1.269       .  A
O1702     Co1705   1.978       .  S
Co1703     O1707   2.025       .  S
Co1704     O1707   2.038       .  S
Co1705     O1707   2.077       .  S
Co1706     O1707   2.080       .  S
C1708      C1912   1.519       .  S
C1709      C3916   1.495       .  S
C1710      C4540   1.461       .  S
C1711      C3256   1.495       .  S
O1712      C1720   1.268       .  A
O1712     Co1732   1.976       .  S
O1713      C1721   1.264       .  A
O1713     Co1733   1.978   1_565  S
O1714      C1722   1.280       .  A
O1714     Co1734   2.058       .  S
O1715      C1723   1.280       .  A
O1715     Co1735   2.047       .  S
O1716      C1722   1.264       .  A
O1716     Co1733   1.981       .  S
O1717      C1723   1.269       .  A
O1717     Co1732   1.978   1_565  S
O1718      C1721   1.266       .  A
O1718     Co1735   2.002       .  S
O1719      C1720   1.262       .  A
O1719     Co1734   1.980       .  S
C1720      C3424   1.485       .  S
C1721      C2236   1.486       .  S
C1722      C1837   1.511       .  S
C1723      C2980   1.505       .  S
O1724      C1737   1.266       .  A
O1724     Co1732   2.005   1_565  S
O1725      C1738   1.275       .  A
O1725     Co1733   2.039       .  S
O1726      C1739   1.272       .  A
O1726     Co1734   1.991       .  S
O1727      C1740   1.273       .  A
O1727     Co1735   2.000       .  S
O1728      C1740   1.275       .  A
O1728     Co1733   2.037   1_565  S
O1729      C1739   1.268       .  A
O1729     Co1732   2.011       .  S
O1730      C1737   1.268       .  A
O1730     Co1735   1.983       .  S
O1731      C1738   1.257       .  A
O1731     Co1734   1.961       .  S
Co1732     O1736   2.119       .  S
Co1733     O1736   2.112       .  S
Co1734     O1736   2.104       .  S
Co1735     O1736   2.109   1_565  S
C1737      C2812   1.494       .  S
C1738      C1744   1.494       .  S
C1739      C3340   1.500       .  S
C1740      C2116   1.518       .  S
C1741      C1742   1.407       .  A
C1741      C1746   1.419       .  A
C1742      C1743   1.407       .  A
C1742      H1747   1.084       .  S
C1743      C1744   1.419       .  A
C1743      C1750   1.444       .  S
C1744      C1745   1.402       .  A
C1745      C1746   1.401       .  A
C1745      H1748   1.083       .  S
C1746      C1749   1.443       .  S
C1749      N1751   1.157       .  T
C1750      N1752   1.157       .  T
C1753      C1754   1.409       .  A
C1753      C1758   1.411       .  A
C1754      C1755   1.404       .  A
C1754      H1759   1.085       .  S
C1755      C1756   1.416       .  A
C1755      C1762   1.444       .  S
C1756      C1757   1.410       .  A
C1757      C1758   1.404       .  A
C1757      H1760   1.085       .  S
C1758      C1761   1.440       .  S
C1761      N1763   1.156       .  T
C1762      N1764   1.157       .  T
C1765      C1766   1.409       .  A
C1765      C1770   1.418       .  A
C1766      C1767   1.415       .  A
C1766      H1771   1.084       .  S
C1767      C1768   1.419       .  A
C1767      C1774   1.443       .  S
C1768      C1769   1.402       .  A
C1769      C1770   1.390       .  A
C1769      H1772   1.086       .  S
C1770      C1773   1.444       .  S
C1773      N1775   1.157       .  T
C1774      N1776   1.157       .  T
C1777      C1778   1.407       .  A
C1777      C1782   1.405       .  A
C1778      C1779   1.405       .  A
C1778      H1783   1.085       .  S
C1779      C1780   1.410       .  A
C1779      C1786   1.443       .  S
C1780      C1781   1.404       .  A
C1781      C1782   1.388       .  A
C1781      H1784   1.086       .  S
C1782      C1785   1.439       .  S
C1785      N1787   1.155       .  T
C1786      N1788   1.157       .  T
C1789      C1790   1.413       .  A
C1789      C1794   1.417       .  A
C1790      C1791   1.401       .  A
C1790      H1795   1.084       .  S
C1791      C1792   1.404       .  A
C1791      C1798   1.443       .  S
C1792      C1793   1.406       .  A
C1793      C1794   1.408       .  A
C1793      H1796   1.085       .  S
C1794      C1797   1.441       .  S
C1797      N1799   1.157       .  T
C1798      N1800   1.157       .  T
C1801      C1802   1.400       .  A
C1801      C1806   1.417       .  A
C1802      C1803   1.405       .  A
C1802      H1807   1.083       .  S
C1803      C1804   1.421       .  A
C1803      C1810   1.442       .  S
C1804      C1805   1.407       .  A
C1805      C1806   1.407       .  A
C1805      H1808   1.085       .  S
C1806      C1809   1.445       .  S
C1809      N1811   1.158       .  T
C1810      N1812   1.157       .  T
C1813      C1814   1.401       .  A
C1813      C1818   1.416       .  A
C1814      C1815   1.406       .  A
C1814      H1819   1.085       .  S
C1815      C1816   1.418       .  A
C1815      C1822   1.440       .  S
C1816      C1817   1.401       .  A
C1817      C1818   1.395       .  A
C1817      H1820   1.085       .  S
C1818      C1821   1.446       .  S
C1821      N1823   1.157       .  T
C1822      N1824   1.156       .  T
C1825      C1826   1.408       .  A
C1825      C1830   1.418       .  A
C1826      C1827   1.406       .  A
C1826      H1831   1.083       .  S
C1827      C1828   1.412       .  A
C1827      C1834   1.442       .  S
C1828      C1829   1.403       .  A
C1829      C1830   1.398       .  A
C1829      H1832   1.085       .  S
C1830      C1833   1.445       .  S
C1833      N1835   1.157       .  T
C1834      N1836   1.157       .  T
C1837      C1838   1.404       .  A
C1837      C1842   1.420       .  A
C1838      C1839   1.409       .  A
C1838      H1843   1.080       .  S
C1839      C1840   1.418       .  A
C1839      C1846   1.445       .  S
C1840      C1841   1.408       .  A
C1841      C1842   1.416       .  A
C1841      H1844   1.085       .  S
C1842      C1845   1.443       .  S
C1845      N1847   1.157       .  T
C1846      N1848   1.157       .  T
C1849      C1850   1.404       .  A
C1849      C1854   1.416       .  A
C1850      C1851   1.392       .  A
C1850      H1855   1.085       .  S
C1851      C1852   1.410       .  A
C1851      C1858   1.445       .  S
C1852      C1853   1.406       .  A
C1853      C1854   1.411       .  A
C1853      H1856   1.085       .  S
C1854      C1857   1.442       .  S
C1857      N1859   1.157       .  T
C1858      N1860   1.157       .  T
C1861      C1862   1.404       .  A
C1861      C1866   1.422       .  A
C1862      C1863   1.401       .  A
C1862      H1867   1.085       .  S
C1863      C1864   1.417       .  A
C1863      C1870   1.446       .  S
C1864      C1865   1.404       .  A
C1865      C1866   1.413       .  A
C1865      H1868   1.084       .  S
C1866      C1869   1.443       .  S
C1869      N1871   1.157       .  T
C1870      N1872   1.157       .  T
C1873      C1874   1.404       .  A
C1873      C1878   1.418       .  A
C1874      C1875   1.400       .  A
C1874      H1879   1.084       .  S
C1875      C1876   1.418       .  A
C1875      C1882   1.444       .  S
C1876      C1877   1.408       .  A
C1877      C1878   1.406       .  A
C1877      H1880   1.084       .  S
C1878      C1881   1.445       .  S
C1881      N1883   1.158       .  T
C1882      N1884   1.157       .  T
C1885      C1886   1.404       .  A
C1885      C1890   1.403       .  A
C1886      C1887   1.401       .  A
C1886      H1891   1.086       .  S
C1887      C1888   1.411       .  A
C1887      C1894   1.436       .  S
C1888      C1889   1.417       .  A
C1889      C1890   1.405       .  A
C1889      H1892   1.084       .  S
C1890      C1893   1.443       .  S
C1893      N1895   1.157       .  T
C1894      N1896   1.155       .  T
C1897      C1898   1.413       .  A
C1897      C1902   1.416       .  A
C1898      C1899   1.421       .  A
C1898      H1903   1.084       .  S
C1899      C1900   1.417       .  A
C1899      C1906   1.442       .  S
C1900      C1901   1.408       .  A
C1901      C1902   1.402       .  A
C1901      H1904   1.084       .  S
C1902      C1905   1.444       .  S
C1905      N1907   1.157       .  T
C1906      N1908   1.157       .  T
C1909      C1910   1.397       .  A
C1909      C1914   1.421       .  A
C1910      C1911   1.405   1_455  A
C1910      H1915   1.086       .  S
C1911      C1912   1.429       .  A
C1911      C1918   1.443       .  S
C1912      C1913   1.410       .  A
C1913      C1914   1.422   1_655  A
C1913      H1916   1.084       .  S
C1914      C1917   1.442       .  S
C1917      N1919   1.157       .  T
C1918      N1920   1.157       .  T
C1921      C1922   1.401       .  A
C1921      C1926   1.423       .  A
C1922      C1923   1.403       .  A
C1922      H1927   1.084       .  S
C1923      C1924   1.420       .  A
C1923      C1930   1.445       .  S
C1924      C1925   1.400       .  A
C1925      C1926   1.409       .  A
C1925      H1928   1.085       .  S
C1926      C1929   1.444       .  S
C1929      N1931   1.157       .  T
C1930      N1932   1.157       .  T
C1933      C1934   1.406       .  A
C1933      C1938   1.422       .  A
C1934      C1935   1.408   1_655  A
C1934      H1939   1.085       .  S
C1935      C1936   1.421       .  A
C1935      C1942   1.444       .  S
C1936      C1937   1.407       .  A
C1937      C1938   1.407   1_455  A
C1937      H1940   1.085       .  S
C1938      C1941   1.445       .  S
C1941      N1943   1.158       .  T
C1942      N1944   1.157       .  T
C1945      C1946   1.412       .  A
C1945      C1950   1.418       .  A
C1946      C1947   1.426       .  A
C1946      H1951   1.084       .  S
C1947      C1948   1.419       .  A
C1947      C1954   1.441       .  S
C1948      C1949   1.404       .  A
C1949      C1950   1.403       .  A
C1949      H1952   1.085       .  S
C1950      C1953   1.446       .  S
C1953      N1955   1.157       .  T
C1954      N1956   1.157       .  T
C1957      C1958   1.403       .  A
C1957      C1962   1.410       .  A
C1958      C1959   1.399       .  A
C1958      H1963   1.086       .  S
C1959      C1960   1.411       .  A
C1959      C1966   1.445       .  S
C1960      C1961   1.405       .  A
C1961      C1962   1.402       .  A
C1961      H1964   1.085       .  S
C1962      C1965   1.443       .  S
C1965      N1967   1.157       .  T
C1966      N1968   1.157       .  T
C1969      C1970   1.395       .  A
C1969      C1974   1.418       .  A
C1970      C1971   1.403       .  A
C1970      H1975   1.079       .  S
C1971      C1972   1.425       .  A
C1971      C1978   1.445       .  S
C1972      C1973   1.409       .  A
C1973      C1974   1.418       .  A
C1973      H1976   1.084       .  S
C1974      C1977   1.441       .  S
C1977      N1979   1.157       .  T
C1978      N1980   1.158       .  T
C1981      C1982   1.409       .  A
C1981      C1986   1.417       .  A
C1982      C1983   1.401       .  A
C1982      H1987   1.085       .  S
C1983      C1984   1.411       .  A
C1983      C1990   1.445       .  S
C1984      C1985   1.404       .  A
C1985      C1986   1.405       .  A
C1985      H1988   1.085       .  S
C1986      C1989   1.443       .  S
C1989      N1991   1.157       .  T
C1990      N1992   1.157       .  T
C1993      C1994   1.408       .  A
C1993      C1998   1.422       .  A
C1994      C1995   1.399       .  A
C1994      H1999   1.084       .  S
C1995      C1996   1.407       .  A
C1995      C2002   1.444       .  S
C1996      C1997   1.398       .  A
C1997      C1998   1.401       .  A
C1997      H2000   1.085       .  S
C1998      C2001   1.444       .  S
C2001      N2003   1.157       .  T
C2002      N2004   1.157       .  T
C2005      C2006   1.413       .  A
C2005      C2010   1.417       .  A
C2006      C2007   1.409       .  A
C2006      H2011   1.084       .  S
C2007      C2008   1.417       .  A
C2007      C2014   1.444       .  S
C2008      C2009   1.411       .  A
C2009      C2010   1.405       .  A
C2009      H2012   1.084       .  S
C2010      C2013   1.443       .  S
C2013      N2015   1.157       .  T
C2014      N2016   1.157       .  T
C2017      C2018   1.403       .  A
C2017      C2022   1.411       .  A
C2018      C2019   1.403       .  A
C2018      H2023   1.085       .  S
C2019      C2020   1.419       .  A
C2019      C2026   1.444       .  S
C2020      C2021   1.416       .  A
C2021      C2022   1.417       .  A
C2021      H2024   1.084       .  S
C2022      C2025   1.443       .  S
C2025      N2027   1.157       .  T
C2026      N2028   1.157       .  T
C2029      C2030   1.404       .  A
C2029      C2034   1.423       .  A
C2030      C2031   1.399       .  A
C2030      H2035   1.085       .  S
C2031      C2032   1.410       .  A
C2031      C2038   1.441       .  S
C2032      C2033   1.400       .  A
C2033      C2034   1.407       .  A
C2033      H2036   1.085       .  S
C2034      C2037   1.444       .  S
C2037      N2039   1.157       .  T
C2038      N2040   1.156       .  T
C2041      C2042   1.407       .  A
C2041      C2046   1.411       .  A
C2042      C2043   1.417       .  A
C2042      H2047   1.084       .  S
C2043      C2044   1.417       .  A
C2043      C2050   1.438       .  S
C2044      C2045   1.402       .  A
C2045      C2046   1.398       .  A
C2045      H2048   1.074       .  S
C2046      C2049   1.446       .  S
C2049      N2051   1.157       .  T
C2050      N2052   1.156       .  T
C2053      C2054   1.398       .  A
C2053      C2058   1.405       .  A
C2054      C2055   1.392       .  A
C2054      H2059   1.085       .  S
C2055      C2056   1.413       .  A
C2055      C2062   1.444       .  S
C2056      C2057   1.412       .  A
C2057      C2058   1.405       .  A
C2057      H2060   1.084       .  S
C2058      C2061   1.444       .  S
C2061      N2063   1.157       .  T
C2062      N2064   1.157       .  T
C2065      C2066   1.394       .  A
C2065      C2070   1.410       .  A
C2066      C2067   1.388       .  A
C2066      H2071   1.086       .  S
C2067      C2068   1.424       .  A
C2067      C2074   1.446       .  S
C2068      C2069   1.403       .  A
C2069      C2070   1.397       .  A
C2069      H2072   1.085       .  S
C2070      C2073   1.442       .  S
C2073      N2075   1.157       .  T
C2074      N2076   1.158       .  T
C2077      C2078   1.398       .  A
C2077      C2082   1.422       .  A
C2078      C2079   1.398       .  A
C2078      H2083   1.086       .  S
C2079      C2080   1.431       .  A
C2079      C2086   1.447       .  S
C2080      C2081   1.406       .  A
C2081      C2082   1.414       .  A
C2081      H2084   1.084       .  S
C2082      C2085   1.443       .  S
C2085      N2087   1.157       .  T
C2086      N2088   1.157       .  T
C2089      C2090   1.405       .  A
C2089      C2094   1.408       .  A
C2090      C2091   1.403       .  A
C2090      H2095   1.086       .  S
C2091      C2092   1.419       .  A
C2091      C2098   1.445       .  S
C2092      C2093   1.413       .  A
C2093      C2094   1.411       .  A
C2093      H2096   1.084       .  S
C2094      C2097   1.441       .  S
C2097      N2099   1.157       .  T
C2098      N2100   1.158       .  T
C2101      C2102   1.409       .  A
C2101      C2106   1.417       .  A
C2102      C2103   1.408   1_565  A
C2102      H2107   1.084       .  S
C2103      C2104   1.417       .  A
C2103      C2110   1.444       .  S
C2104      C2105   1.407       .  A
C2105      C2106   1.405   1_545  A
C2105      H2108   1.085       .  S
C2106      C2109   1.444       .  S
C2109      N2111   1.157       .  T
C2110      N2112   1.157       .  T
C2113      C2114   1.408       .  A
C2113      C2118   1.419       .  A
C2114      C2115   1.405       .  A
C2114      H2119   1.085       .  S
C2115      C2116   1.423       .  A
C2115      C2122   1.445       .  S
C2116      C2117   1.413       .  A
C2117      C2118   1.419       .  A
C2117      H2120   1.084       .  S
C2118      C2121   1.442       .  S
C2121      N2123   1.157       .  T
C2122      N2124   1.158       .  T
C2125      C2126   1.411       .  A
C2125      C2130   1.414       .  A
C2126      C2127   1.419       .  A
C2126      H2131   1.084       .  S
C2127      C2128   1.413       .  A
C2127      C2134   1.441       .  S
C2128      C2129   1.404       .  A
C2129      C2130   1.398       .  A
C2129      H2132   1.086       .  S
C2130      C2133   1.444       .  S
C2133      N2135   1.157       .  T
C2134      N2136   1.157       .  T
C2137      C2138   1.399       .  A
C2137      C2142   1.416       .  A
C2138      C2139   1.398   1_565  A
C2138      H2143   1.085       .  S
C2139      C2140   1.420       .  A
C2139      C2146   1.444       .  S
C2140      C2141   1.407       .  A
C2141      C2142   1.406   1_545  A
C2141      H2144   1.085       .  S
C2142      C2145   1.444       .  S
C2145      N2147   1.157       .  T
C2146      N2148   1.157       .  T
C2149      C2150   1.404       .  A
C2149      C2154   1.417       .  A
C2150      C2151   1.399       .  A
C2150      H2155   1.085       .  S
C2151      C2152   1.417       .  A
C2151      C2158   1.443       .  S
C2152      C2153   1.406       .  A
C2153      C2154   1.397       .  A
C2153      H2156   1.085       .  S
C2154      C2157   1.446       .  S
C2157      N2159   1.158       .  T
C2158      N2160   1.157       .  T
C2161      C2162   1.402       .  A
C2161      C2166   1.415       .  A
C2162      C2163   1.396       .  A
C2162      H2167   1.085       .  S
C2163      C2164   1.417       .  A
C2163      C2170   1.446       .  S
C2164      C2165   1.408       .  A
C2165      C2166   1.412       .  A
C2165      H2168   1.084       .  S
C2166      C2169   1.443       .  S
C2169      N2171   1.157       .  T
C2170      N2172   1.157       .  T
C2173      C2174   1.408       .  A
C2173      C2178   1.414       .  A
C2174      C2175   1.414       .  A
C2174      H2179   1.085       .  S
C2175      C2176   1.420       .  A
C2175      C2182   1.444       .  S
C2176      C2177   1.410       .  A
C2177      C2178   1.409       .  A
C2177      H2180   1.084       .  S
C2178      C2181   1.444       .  S
C2181      N2183   1.157       .  T
C2182      N2184   1.157       .  T
C2185      C2186   1.418       .  A
C2185      C2190   1.403       .  A
C2186      C2187   1.399       .  A
C2186      H2191   1.085       .  S
C2187      C2188   1.408       .  A
C2187      C2194   1.443       .  S
C2188      C2189   1.416       .  A
C2189      C2190   1.408       .  A
C2189      H2192   1.084       .  S
C2190      C2193   1.440       .  S
C2193      N2195   1.157       .  T
C2194      N2196   1.156       .  T
C2197      C2198   1.422       .  A
C2197      C2202   1.404       .  A
C2198      C2199   1.407       .  A
C2198      H2203   1.084       .  S
C2199      C2200   1.406       .  A
C2199      C2206   1.445       .  S
C2200      C2201   1.410       .  A
C2201      C2202   1.387       .  A
C2201      H2204   1.085       .  S
C2202      C2205   1.443       .  S
C2205      N2207   1.157       .  T
C2206      N2208   1.158       .  T
C2209      C2210   1.407       .  A
C2209      C2214   1.414       .  A
C2210      C2211   1.392       .  A
C2210      H2215   1.085       .  S
C2211      C2212   1.414       .  A
C2211      C2218   1.446       .  S
C2212      C2213   1.409       .  A
C2213      C2214   1.406       .  A
C2213      H2216   1.084       .  S
C2214      C2217   1.443       .  S
C2217      N2219   1.157       .  T
C2218      N2220   1.157       .  T
C2221      C2222   1.403       .  A
C2221      C2226   1.423       .  A
C2222      C2223   1.398       .  A
C2222      H2227   1.085       .  S
C2223      C2224   1.413       .  A
C2223      C2230   1.444       .  S
C2224      C2225   1.396       .  A
C2225      C2226   1.395       .  A
C2225      H2228   1.086       .  S
C2226      C2229   1.445       .  S
C2229      N2231   1.157       .  T
C2230      N2232   1.157       .  T
C2233      C2234   1.398       .  A
C2233      C2238   1.415       .  A
C2234      C2235   1.392       .  A
C2234      H2239   1.086       .  S
C2235      C2236   1.418       .  A
C2235      C2242   1.444       .  S
C2236      C2237   1.408       .  A
C2237      C2238   1.406       .  A
C2237      H2240   1.085       .  S
C2238      C2241   1.445       .  S
C2241      N2243   1.158       .  T
C2242      N2244   1.157       .  T
C2245      C2246   1.405       .  A
C2245      C2250   1.419       .  A
C2246      C2247   1.406       .  A
C2246      H2251   1.086       .  S
C2247      C2248   1.426       .  A
C2247      C2254   1.446       .  S
C2248      C2249   1.415       .  A
C2249      C2250   1.425       .  A
C2249      H2252   1.084       .  S
C2250      C2253   1.442       .  S
C2253      N2255   1.157       .  T
C2254      N2256   1.158       .  T
C2257      C2258   1.397       .  A
C2257      C2262   1.415       .  A
C2258      C2259   1.399       .  A
C2258      H2263   1.085       .  S
C2259      C2260   1.426       .  A
C2259      C2266   1.445       .  S
C2260      C2261   1.402       .  A
C2261      C2262   1.398       .  A
C2261      H2264   1.084       .  S
C2262      C2265   1.442       .  S
C2265      N2267   1.156       .  T
C2266      N2268   1.158       .  T
C2269      C2270   1.401       .  A
C2269      C2274   1.416       .  A
C2270      C2271   1.393       .  A
C2270      H2275   1.085       .  S
C2271      C2272   1.410       .  A
C2271      C2278   1.443       .  S
C2272      C2273   1.404       .  A
C2273      C2274   1.408       .  A
C2273      H2276   1.080       .  S
C2274      C2277   1.445       .  S
C2277      N2279   1.158       .  T
C2278      N2280   1.157       .  T
C2281      C2282   1.399       .  A
C2281      C2286   1.410       .  A
C2282      C2283   1.398       .  A
C2282      H2287   1.086       .  S
C2283      C2284   1.413       .  A
C2283      C2290   1.439       .  S
C2284      C2285   1.406       .  A
C2285      C2286   1.396       .  A
C2285      H2288   1.085       .  S
C2286      C2289   1.446       .  S
C2289      N2291   1.158       .  T
C2290      N2292   1.155       .  T
C2293      C2294   1.407       .  A
C2293      C2298   1.429       .  A
C2294      C2295   1.409       .  A
C2294      H2299   1.084       .  S
C2295      C2296   1.422       .  A
C2295      C2302   1.445       .  S
C2296      C2297   1.403       .  A
C2297      C2298   1.417       .  A
C2297      H2300   1.085       .  S
C2298      C2301   1.440       .  S
C2301      N2303   1.156       .  T
C2302      N2304   1.157       .  T
C2305      C2306   1.411       .  A
C2305      C2310   1.405       .  A
C2306      C2307   1.391       .  A
C2306      H2311   1.086       .  S
C2307      C2308   1.403       .  A
C2307      C2314   1.445       .  S
C2308      C2309   1.411       .  A
C2309      C2310   1.398       .  A
C2309      H2312   1.085       .  S
C2310      C2313   1.444       .  S
C2313      N2315   1.157       .  T
C2314      N2316   1.157       .  T
C2317      C2318   1.405       .  A
C2317      C2322   1.421       .  A
C2318      C2319   1.410   1_565  A
C2318      H2323   1.085       .  S
C2319      C2320   1.415       .  A
C2319      C2326   1.441       .  S
C2320      C2321   1.401       .  A
C2321      C2322   1.406   1_545  A
C2321      H2324   1.085       .  S
C2322      C2325   1.445       .  S
C2325      N2327   1.158       .  T
C2326      N2328   1.157       .  T
C2329      C2330   1.407       .  A
C2329      C2334   1.410       .  A
C2330      C2331   1.400   1_565  A
C2330      H2335   1.085       .  S
C2331      C2332   1.410       .  A
C2331      C2338   1.444       .  S
C2332      C2333   1.407       .  A
C2333      C2334   1.396   1_545  A
C2333      H2336   1.085       .  S
C2334      C2337   1.444       .  S
C2337      N2339   1.157       .  T
C2338      N2340   1.157       .  T
C2341      C2342   1.406       .  A
C2341      C2346   1.419       .  A
C2342      C2343   1.406   1_455  A
C2342      H2347   1.085       .  S
C2343      C2344   1.421       .  A
C2343      C2350   1.445       .  S
C2344      C2345   1.410       .  A
C2345      C2346   1.412   1_655  A
C2345      H2348   1.084       .  S
C2346      C2349   1.443       .  S
C2349      N2351   1.157       .  T
C2350      N2352   1.157       .  T
C2353      C2354   1.402       .  A
C2353      C2358   1.416       .  A
C2354      C2355   1.411       .  A
C2354      H2359   1.084       .  S
C2355      C2356   1.418       .  A
C2355      C2362   1.442       .  S
C2356      C2357   1.401       .  A
C2357      C2358   1.396       .  A
C2357      H2360   1.085       .  S
C2358      C2361   1.446       .  S
C2361      N2363   1.157       .  T
C2362      N2364   1.157       .  T
C2365      C2366   1.410       .  A
C2365      C2370   1.418       .  A
C2366      C2367   1.407   1_455  A
C2366      H2371   1.084       .  S
C2367      C2368   1.416       .  A
C2367      C2374   1.444       .  S
C2368      C2369   1.405       .  A
C2369      C2370   1.395   1_655  A
C2369      H2372   1.085       .  S
C2370      C2373   1.445       .  S
C2373      N2375   1.157       .  T
C2374      N2376   1.158       .  T
C2377      C2378   1.406       .  A
C2377      C2382   1.429       .  A
C2378      C2379   1.408       .  A
C2378      H2383   1.084       .  S
C2379      C2380   1.418       .  A
C2379      C2386   1.445       .  S
C2380      C2381   1.399       .  A
C2381      C2382   1.411       .  A
C2381      H2384   1.082       .  S
C2382      C2385   1.445       .  S
C2385      N2387   1.158       .  T
C2386      N2388   1.157       .  T
C2389      C2390   1.407       .  A
C2389      C2394   1.411       .  A
C2390      C2391   1.409       .  A
C2390      H2395   1.084       .  S
C2391      C2392   1.414       .  A
C2391      C2398   1.443       .  S
C2392      C2393   1.404       .  A
C2393      C2394   1.395       .  A
C2393      H2396   1.085       .  S
C2394      C2397   1.444       .  S
C2397      N2399   1.157       .  T
C2398      N2400   1.157       .  T
C2401      C2402   1.392       .  A
C2401      C2406   1.412       .  A
C2402      C2403   1.387       .  A
C2402      H2407   1.086       .  S
C2403      C2404   1.419       .  A
C2403      C2410   1.445       .  S
C2404      C2405   1.399       .  A
C2405      C2406   1.397       .  A
C2405      H2408   1.085       .  S
C2406      C2409   1.442       .  S
C2409      N2411   1.157       .  T
C2410      N2412   1.157       .  T
C2413      C2414   1.404       .  A
C2413      C2418   1.411       .  A
C2414      C2415   1.397       .  A
C2414      H2419   1.085       .  S
C2415      C2416   1.415       .  A
C2415      C2422   1.445       .  S
C2416      C2417   1.403       .  A
C2417      C2418   1.393       .  A
C2417      H2420   1.085       .  S
C2418      C2421   1.443       .  S
C2421      N2423   1.157       .  T
C2422      N2424   1.158       .  T
C2425      C2426   1.402       .  A
C2425      C2430   1.415       .  A
C2426      C2427   1.396       .  A
C2426      H2431   1.084       .  S
C2427      C2428   1.417       .  A
C2427      C2434   1.444       .  S
C2428      C2429   1.405       .  A
C2429      C2430   1.400       .  A
C2429      H2432   1.085       .  S
C2430      C2433   1.444       .  S
C2433      N2435   1.157       .  T
C2434      N2436   1.157       .  T
C2437      C2438   1.409       .  A
C2437      C2442   1.421       .  A
C2438      C2439   1.402       .  A
C2438      H2443   1.085       .  S
C2439      C2440   1.413       .  A
C2439      C2446   1.445       .  S
C2440      C2441   1.405       .  A
C2441      C2442   1.410       .  A
C2441      H2444   1.085       .  S
C2442      C2445   1.444       .  S
C2445      N2447   1.157       .  T
C2446      N2448   1.157       .  T
C2449      C2450   1.414       .  A
C2449      C2454   1.423       .  A
C2450      C2451   1.427       .  A
C2450      H2455   1.084       .  S
C2451      C2452   1.423       .  A
C2451      C2458   1.442       .  S
C2452      C2453   1.408       .  A
C2453      C2454   1.412       .  A
C2453      H2456   1.084       .  S
C2454      C2457   1.445       .  S
C2457      N2459   1.157       .  T
C2458      N2460   1.157       .  T
C2461      C2462   1.400       .  A
C2461      C2466   1.411       .  A
C2462      C2463   1.391       .  A
C2462      H2467   1.085       .  S
C2463      C2464   1.421       .  A
C2463      C2470   1.446       .  S
C2464      C2465   1.404       .  A
C2465      C2466   1.402       .  A
C2465      H2468   1.083       .  S
C2466      C2469   1.442       .  S
C2469      N2471   1.157       .  T
C2470      N2472   1.158       .  T
C2473      C2474   1.401       .  A
C2473      C2478   1.424       .  A
C2474      C2475   1.404       .  A
C2474      H2479   1.085       .  S
C2475      C2476   1.425       .  A
C2475      C2482   1.444       .  S
C2476      C2477   1.403       .  A
C2477      C2478   1.407       .  A
C2477      H2480   1.085       .  S
C2478      C2481   1.444       .  S
C2481      N2483   1.158       .  T
C2482      N2484   1.157       .  T
C2485      C2486   1.404       .  A
C2485      C2490   1.428       .  A
C2486      C2487   1.413       .  A
C2486      H2491   1.084       .  S
C2487      C2488   1.418       .  A
C2487      C2494   1.443       .  S
C2488      C2489   1.395       .  A
C2489      C2490   1.403       .  A
C2489      H2492   1.085       .  S
C2490      C2493   1.446       .  S
C2493      N2495   1.157       .  T
C2494      N2496   1.157       .  T
C2497      C2498   1.403       .  A
C2497      C2502   1.411       .  A
C2498      C2499   1.406       .  A
C2498      H2503   1.085       .  S
C2499      C2500   1.417       .  A
C2499      C2506   1.442       .  S
C2500      C2501   1.405       .  A
C2501      C2502   1.390       .  A
C2501      H2504   1.085       .  S
C2502      C2505   1.447       .  S
C2505      N2507   1.158       .  T
C2506      N2508   1.157       .  T
C2509      C2510   1.409       .  A
C2509      C2514   1.414       .  A
C2510      C2511   1.395       .  A
C2510      H2515   1.085       .  S
C2511      C2512   1.406       .  A
C2511      C2518   1.442       .  S
C2512      C2513   1.408       .  A
C2513      C2514   1.407       .  A
C2513      H2516   1.085       .  S
C2514      C2517   1.443       .  S
C2517      N2519   1.157       .  T
C2518      N2520   1.156       .  T
C2521      C2522   1.391       .  A
C2521      C2526   1.416       .  A
C2522      C2523   1.392       .  A
C2522      H2527   1.073       .  S
C2523      C2524   1.417       .  A
C2523      C2530   1.445       .  S
C2524      C2525   1.401       .  A
C2525      C2526   1.392       .  A
C2525      H2528   1.085       .  S
C2526      C2529   1.447       .  S
C2529      N2531   1.158       .  T
C2530      N2532   1.157       .  T
C2533      C2534   1.411       .  A
C2533      C2538   1.412       .  A
C2534      C2535   1.418       .  A
C2534      H2539   1.084       .  S
C2535      C2536   1.416       .  A
C2535      C2542   1.442       .  S
C2536      C2537   1.407       .  A
C2537      C2538   1.399       .  A
C2537      H2540   1.085       .  S
C2538      C2541   1.443       .  S
C2541      N2543   1.156       .  T
C2542      N2544   1.157       .  T
C2545      C2546   1.404       .  A
C2545      C2550   1.418       .  A
C2546      C2547   1.394       .  A
C2546      H2551   1.083       .  S
C2547      C2548   1.417       .  A
C2547      C2554   1.447       .  S
C2548      C2549   1.406       .  A
C2549      C2550   1.409       .  A
C2549      H2552   1.084       .  S
C2550      C2553   1.443       .  S
C2553      N2555   1.157       .  T
C2554      N2556   1.158       .  T
C2557      C2558   1.403       .  A
C2557      C2562   1.421       .  A
C2558      C2559   1.406   1_556  A
C2558      H2563   1.085       .  S
C2559      C2560   1.420       .  A
C2559      C2566   1.441       .  S
C2560      C2561   1.403       .  A
C2561      C2562   1.398   1_554  A
C2561      H2564   1.085       .  S
C2562      C2565   1.444       .  S
C2565      N2567   1.157       .  T
C2566      N2568   1.156       .  T
C2569      C2570   1.411       .  A
C2569      C2574   1.413       .  A
C2570      C2571   1.405   1_556  A
C2570      H2575   1.084       .  S
C2571      C2572   1.405       .  A
C2571      C2578   1.444       .  S
C2572      C2573   1.399       .  A
C2573      C2574   1.393   1_554  A
C2573      H2576   1.086       .  S
C2574      C2577   1.444       .  S
C2577      N2579   1.157       .  T
C2578      N2580   1.157       .  T
C2581      C2582   1.411       .  A
C2581      C2586   1.415       .  A
C2582      C2583   1.421       .  A
C2582      H2587   1.084       .  S
C2583      C2584   1.415       .  A
C2583      C2590   1.441       .  S
C2584      C2585   1.403       .  A
C2585      C2586   1.399       .  A
C2585      H2588   1.086       .  S
C2586      C2589   1.444       .  S
C2589      N2591   1.157       .  T
C2590      N2592   1.157       .  T
C2593      C2594   1.404       .  A
C2593      C2598   1.421       .  A
C2594      C2595   1.401       .  A
C2594      H2599   1.085       .  S
C2595      C2596   1.421       .  A
C2595      C2602   1.445       .  S
C2596      C2597   1.408       .  A
C2597      C2598   1.417       .  A
C2597      H2600   1.084       .  S
C2598      C2601   1.443       .  S
C2601      N2603   1.157       .  T
C2602      N2604   1.157       .  T
C2605      C2606   1.408       .  A
C2605      C2610   1.423       .  A
C2606      C2607   1.411       .  A
C2606      H2611   1.082       .  S
C2607      C2608   1.423       .  A
C2607      C2614   1.445       .  S
C2608      C2609   1.409       .  A
C2609      C2610   1.416       .  A
C2609      H2612   1.084       .  S
C2610      C2613   1.443       .  S
C2613      N2615   1.157       .  T
C2614      N2616   1.157       .  T
C2617      C2618   1.410       .  A
C2617      C2622   1.415       .  A
C2618      C2619   1.404       .  A
C2618      H2623   1.084       .  S
C2619      C2620   1.414       .  A
C2619      C2626   1.444       .  S
C2620      C2621   1.408       .  A
C2621      C2622   1.401       .  A
C2621      H2624   1.085       .  S
C2622      C2625   1.444       .  S
C2625      N2627   1.157       .  T
C2626      N2628   1.157       .  T
C2629      C2630   1.403       .  A
C2629      C2634   1.419       .  A
C2630      C2631   1.407       .  A
C2630      H2635   1.085       .  S
C2631      C2632   1.421       .  A
C2631      C2638   1.444       .  S
C2632      C2633   1.404       .  A
C2633      C2634   1.398       .  A
C2633      H2636   1.085       .  S
C2634      C2637   1.446       .  S
C2637      N2639   1.158       .  T
C2638      N2640   1.157       .  T
C2641      C2642   1.406       .  A
C2641      C2646   1.409       .  A
C2642      C2643   1.405       .  A
C2642      H2647   1.085       .  S
C2643      C2644   1.410       .  A
C2643      C2650   1.443       .  S
C2644      C2645   1.400       .  A
C2645      C2646   1.384       .  A
C2645      H2648   1.086       .  S
C2646      C2649   1.443       .  S
C2649      N2651   1.157       .  T
C2650      N2652   1.157       .  T
C2653      C2654   1.405       .  A
C2653      C2658   1.412       .  A
C2654      C2655   1.399       .  A
C2654      H2659   1.081       .  S
C2655      C2656   1.405       .  A
C2655      C2662   1.443       .  S
C2656      C2657   1.400       .  A
C2657      C2658   1.392       .  A
C2657      H2660   1.085       .  S
C2658      C2661   1.444       .  S
C2661      N2663   1.157       .  T
C2662      N2664   1.157       .  T
C2665      C2666   1.395       .  A
C2665      C2670   1.413       .  A
C2666      C2667   1.393       .  A
C2666      H2671   1.086       .  S
C2667      C2668   1.419       .  A
C2667      C2674   1.445       .  S
C2668      C2669   1.399       .  A
C2669      C2670   1.397       .  A
C2669      H2672   1.085       .  S
C2670      C2673   1.439       .  S
C2673      N2675   1.155       .  T
C2674      N2676   1.157       .  T
C2677      C2678   1.405       .  A
C2677      C2682   1.409       .  A
C2678      C2679   1.405       .  A
C2678      H2683   1.084       .  S
C2679      C2680   1.411       .  A
C2679      C2686   1.443       .  S
C2680      C2681   1.403       .  A
C2681      C2682   1.391       .  A
C2681      H2684   1.083       .  S
C2682      C2685   1.446       .  S
C2685      N2687   1.157       .  T
C2686      N2688   1.157       .  T
C2689      C2690   1.407       .  A
C2689      C2694   1.416       .  A
C2690      C2691   1.407       .  A
C2690      H2695   1.085       .  S
C2691      C2692   1.418       .  A
C2691      C2698   1.444       .  S
C2692      C2693   1.407       .  A
C2693      C2694   1.404       .  A
C2693      H2696   1.085       .  S
C2694      C2697   1.445       .  S
C2697      N2699   1.157       .  T
C2698      N2700   1.157       .  T
C2701      C2702   1.402       .  A
C2701      C2706   1.420       .  A
C2702      C2703   1.393       .  A
C2702      H2707   1.085       .  S
C2703      C2704   1.407       .  A
C2703      C2710   1.438       .  S
C2704      C2705   1.395       .  A
C2705      C2706   1.386       .  A
C2705      H2708   1.086       .  S
C2706      C2709   1.447       .  S
C2709      N2711   1.158       .  T
C2710      N2712   1.156       .  T
C2713      C2714   1.407       .  A
C2713      C2718   1.403       .  A
C2714      C2715   1.387       .  A
C2714      H2719   1.081       .  S
C2715      C2716   1.394       .  A
C2715      C2722   1.444       .  S
C2716      C2717   1.413       .  A
C2717      C2718   1.400       .  A
C2717      H2720   1.084       .  S
C2718      C2721   1.445       .  S
C2721      N2723   1.158       .  T
C2722      N2724   1.157       .  T
C2725      C2726   1.406       .  A
C2725      C2730   1.417       .  A
C2726      C2727   1.409       .  A
C2726      H2731   1.084       .  S
C2727      C2728   1.417       .  A
C2727      C2734   1.443       .  S
C2728      C2729   1.404       .  A
C2729      C2730   1.393       .  A
C2729      H2732   1.085       .  S
C2730      C2733   1.447       .  S
C2733      N2735   1.157       .  T
C2734      N2736   1.157       .  T
C2737      C2738   1.402       .  A
C2737      C2742   1.424       .  A
C2738      C2739   1.406       .  A
C2738      H2743   1.085       .  S
C2739      C2740   1.423       .  A
C2739      C2746   1.443       .  S
C2740      C2741   1.403       .  A
C2741      C2742   1.410       .  A
C2741      H2744   1.077       .  S
C2742      C2745   1.446       .  S
C2745      N2747   1.158       .  T
C2746      N2748   1.157       .  T
C2749      C2750   1.395       .  A
C2749      C2754   1.415       .  A
C2750      C2751   1.397   1_556  A
C2750      H2755   1.086       .  S
C2751      C2752   1.421       .  A
C2751      C2758   1.445       .  S
C2752      C2753   1.405       .  A
C2753      C2754   1.410   1_554  A
C2753      H2756   1.084       .  S
C2754      C2757   1.442       .  S
C2757      N2759   1.157       .  T
C2758      N2760   1.157       .  T
C2761      C2762   1.409       .  A
C2761      C2766   1.415       .  A
C2762      C2763   1.407   1_556  A
C2762      H2767   1.085       .  S
C2763      C2764   1.416       .  A
C2763      C2770   1.444       .  S
C2764      C2765   1.413       .  A
C2765      C2766   1.415   1_554  A
C2765      H2768   1.082       .  S
C2766      C2769   1.443       .  S
C2769      N2771   1.157       .  T
C2770      N2772   1.157       .  T
C2773      C2774   1.407       .  A
C2773      C2778   1.417       .  A
C2774      C2775   1.402   1_655  A
C2774      H2779   1.085       .  S
C2775      C2776   1.416       .  A
C2775      C2782   1.445       .  S
C2776      C2777   1.407       .  A
C2777      C2778   1.406   1_455  A
C2777      H2780   1.085       .  S
C2778      C2781   1.444       .  S
C2781      N2783   1.157       .  T
C2782      N2784   1.157       .  T
C2785      C2786   1.409       .  A
C2785      C2790   1.412       .  A
C2786      C2787   1.413       .  A
C2786      H2791   1.084       .  S
C2787      C2788   1.412       .  A
C2787      C2794   1.443       .  S
C2788      C2789   1.404       .  A
C2789      C2790   1.402       .  A
C2789      H2792   1.085       .  S
C2790      C2793   1.443       .  S
C2793      N2795   1.157       .  T
C2794      N2796   1.157       .  T
C2797      C2798   1.400       .  A
C2797      C2802   1.414       .  A
C2798      C2799   1.406   1_655  A
C2798      H2803   1.085       .  S
C2799      C2800   1.414       .  A
C2799      C2806   1.439       .  S
C2800      C2801   1.404       .  A
C2801      C2802   1.408   1_455  A
C2801      H2804   1.085       .  S
C2802      C2805   1.443       .  S
C2805      N2807   1.157       .  T
C2806      N2808   1.156       .  T
C2809      C2810   1.400       .  A
C2809      C2814   1.419       .  A
C2810      C2811   1.396       .  A
C2810      H2815   1.085       .  S
C2811      C2812   1.423       .  A
C2811      C2818   1.445       .  S
C2812      C2813   1.405       .  A
C2813      C2814   1.406       .  A
C2813      H2816   1.084       .  S
C2814      C2817   1.444       .  S
C2817      N2819   1.157       .  T
C2818      N2820   1.157       .  T
C2821      C2822   1.401       .  A
C2821      C2826   1.417       .  A
C2822      C2823   1.400       .  A
C2822      H2827   1.083       .  S
C2823      C2824   1.418       .  A
C2823      C2830   1.446       .  S
C2824      C2825   1.405       .  A
C2825      C2826   1.412       .  A
C2825      H2828   1.085       .  S
C2826      C2829   1.441       .  S
C2829      N2831   1.157       .  T
C2830      N2832   1.157       .  T
C2833      C2834   1.407       .  A
C2833      C2838   1.414       .  A
C2834      C2835   1.414       .  A
C2834      H2839   1.084       .  S
C2835      C2836   1.415       .  A
C2835      C2842   1.443       .  S
C2836      C2837   1.405       .  A
C2837      C2838   1.408       .  A
C2837      H2840   1.085       .  S
C2838      C2841   1.444       .  S
C2841      N2843   1.157       .  T
C2842      N2844   1.157       .  T
C2845      C2846   1.408       .  A
C2845      C2850   1.416       .  A
C2846      C2847   1.399       .  A
C2846      H2851   1.085       .  S
C2847      C2848   1.412       .  A
C2847      C2854   1.443       .  S
C2848      C2849   1.405       .  A
C2849      C2850   1.408       .  A
C2849      H2852   1.084       .  S
C2850      C2853   1.442       .  S
C2853      N2855   1.157       .  T
C2854      N2856   1.157       .  T
C2857      C2858   1.400       .  A
C2857      C2862   1.429       .  A
C2858      C2859   1.405       .  A
C2858      H2863   1.085       .  S
C2859      C2860   1.422       .  A
C2859      C2866   1.442       .  S
C2860      C2861   1.397       .  A
C2861      C2862   1.398       .  A
C2861      H2864   1.084       .  S
C2862      C2865   1.447       .  S
C2865      N2867   1.158       .  T
C2866      N2868   1.157       .  T
C2869      C2870   1.403       .  A
C2869      C2874   1.404       .  A
C2870      C2871   1.395       .  A
C2870      H2875   1.086       .  S
C2871      C2872   1.412       .  A
C2871      C2878   1.444       .  S
C2872      C2873   1.413       .  A
C2873      C2874   1.399       .  A
C2873      H2876   1.084       .  S
C2874      C2877   1.444       .  S
C2877      N2879   1.157       .  T
C2878      N2880   1.157       .  T
C2881      C2882   1.415       .  A
C2881      C2886   1.417       .  A
C2882      C2883   1.402       .  A
C2882      H2887   1.084       .  S
C2883      C2884   1.407       .  A
C2883      C2890   1.445       .  S
C2884      C2885   1.407       .  A
C2885      C2886   1.414       .  A
C2885      H2888   1.080       .  S
C2886      C2889   1.441       .  S
C2889      N2891   1.157       .  T
C2890      N2892   1.157       .  T
C2893      C2894   1.409       .  A
C2893      C2898   1.410       .  A
C2894      C2895   1.387       .  A
C2894      H2899   1.083       .  S
C2895      C2896   1.401       .  A
C2895      C2902   1.446       .  S
C2896      C2897   1.403       .  A
C2897      C2898   1.399       .  A
C2897      H2900   1.085       .  S
C2898      C2901   1.443       .  S
C2901      N2903   1.157       .  T
C2902      N2904   1.157       .  T
C2905      C2906   1.406       .  A
C2905      C2910   1.405       .  A
C2906      C2907   1.404       .  A
C2906      H2911   1.083       .  S
C2907      C2908   1.412       .  A
C2907      C2914   1.441       .  S
C2908      C2909   1.414       .  A
C2909      C2910   1.409       .  A
C2909      H2912   1.084       .  S
C2910      C2913   1.440       .  S
C2913      N2915   1.157       .  T
C2914      N2916   1.156       .  T
C2917      C2918   1.403       .  A
C2917      C2922   1.413       .  A
C2918      C2919   1.395       .  A
C2918      H2923   1.086       .  S
C2919      C2920   1.417       .  A
C2919      C2926   1.444       .  S
C2920      C2921   1.410       .  A
C2921      C2922   1.408       .  A
C2921      H2924   1.084       .  S
C2922      C2925   1.443       .  S
C2925      N2927   1.157       .  T
C2926      N2928   1.157       .  T
C2929      C2930   1.416       .  A
C2929      C2934   1.412       .  A
C2930      C2931   1.408       .  A
C2930      H2935   1.084       .  S
C2931      C2932   1.404       .  A
C2931      C2938   1.444       .  S
C2932      C2933   1.402       .  A
C2933      C2934   1.398       .  A
C2933      H2936   1.085       .  S
C2934      C2937   1.443       .  S
C2937      N2939   1.157       .  T
C2938      N2940   1.158       .  T
C2941      C2942   1.405       .  A
C2941      C2946   1.422       .  A
C2942      C2943   1.404       .  A
C2942      H2947   1.085       .  S
C2943      C2944   1.419       .  A
C2943      C2950   1.444       .  S
C2944      C2945   1.406       .  A
C2945      C2946   1.408       .  A
C2945      H2948   1.085       .  S
C2946      C2949   1.445       .  S
C2949      N2951   1.158       .  T
C2950      N2952   1.157       .  T
C2953      C2954   1.413       .  A
C2953      C2958   1.411       .  A
C2954      C2955   1.407       .  A
C2954      H2959   1.085       .  S
C2955      C2956   1.407       .  A
C2955      C2962   1.442       .  S
C2956      C2957   1.404       .  A
C2957      C2958   1.399       .  A
C2957      H2960   1.085       .  S
C2958      C2961   1.444       .  S
C2961      N2963   1.157       .  T
C2962      N2964   1.157       .  T
C2965      C2966   1.411       .  A
C2965      C2970   1.416       .  A
C2966      C2967   1.407       .  A
C2966      H2971   1.085       .  S
C2967      C2968   1.413       .  A
C2967      C2974   1.444       .  S
C2968      C2969   1.405       .  A
C2969      C2970   1.399       .  A
C2969      H2972   1.085       .  S
C2970      C2973   1.444       .  S
C2973      N2975   1.157       .  T
C2974      N2976   1.157       .  T
C2977      C2978   1.412       .  A
C2977      C2982   1.419       .  A
C2978      C2979   1.417       .  A
C2978      H2983   1.084       .  S
C2979      C2980   1.418       .  A
C2979      C2986   1.443       .  S
C2980      C2981   1.401       .  A
C2981      C2982   1.403       .  A
C2981      H2984   1.076       .  S
C2982      C2985   1.443       .  S
C2985      N2987   1.157       .  T
C2986      N2988   1.157       .  T
C2989      C2990   1.415       .  A
C2989      C2994   1.418       .  A
C2990      C2991   1.426       .  A
C2990      H2995   1.084       .  S
C2991      C2992   1.418       .  A
C2991      C2998   1.441       .  S
C2992      C2993   1.404       .  A
C2993      C2994   1.401       .  A
C2993      H2996   1.080       .  S
C2994      C2997   1.445       .  S
C2997      N2999   1.157       .  T
C2998      N3000   1.157       .  T
C3001      C3002   1.412       .  A
C3001      C3006   1.423       .  A
C3002      C3003   1.413       .  A
C3002      H3007   1.084       .  S
C3003      C3004   1.412       .  A
C3003      C3010   1.443       .  S
C3004      C3005   1.402       .  A
C3005      C3006   1.403       .  A
C3005      H3008   1.080       .  S
C3006      C3009   1.445       .  S
C3009      N3011   1.157       .  T
C3010      N3012   1.157       .  T
C3013      C3014   1.404       .  A
C3013      C3018   1.410       .  A
C3014      C3015   1.396   1_556  A
C3014      H3019   1.085       .  S
C3015      C3016   1.412       .  A
C3015      C3022   1.445       .  S
C3016      C3017   1.406       .  A
C3017      C3018   1.402   1_554  A
C3017      H3020   1.084       .  S
C3018      C3021   1.441       .  S
C3021      N3023   1.157       .  T
C3022      N3024   1.157       .  T
C3025      C3026   1.408       .  A
C3025      C3030   1.424       .  A
C3026      C3027   1.416   1_565  A
C3026      H3031   1.084       .  S
C3027      C3028   1.423       .  A
C3027      C3034   1.443       .  S
C3028      C3029   1.406       .  A
C3029      C3030   1.408   1_545  A
C3029      H3032   1.085       .  S
C3030      C3033   1.445       .  S
C3033      N3035   1.158       .  T
C3034      N3036   1.157       .  T
C3037      C3038   1.406       .  A
C3037      C3042   1.418       .  A
C3038      C3039   1.400   1_545  A
C3038      H3043   1.085       .  S
C3039      C3040   1.416       .  A
C3039      C3046   1.446       .  S
C3040      C3041   1.402       .  A
C3041      C3042   1.403   1_565  A
C3041      H3044   1.085       .  S
C3042      C3045   1.443       .  S
C3045      N3047   1.157       .  T
C3046      N3048   1.158       .  T
C3049      C3050   1.406       .  A
C3049      C3054   1.415       .  A
C3050      C3051   1.393       .  A
C3050      H3055   1.085       .  S
C3051      C3052   1.415       .  A
C3051      C3058   1.446       .  S
C3052      C3053   1.412       .  A
C3053      C3054   1.413       .  A
C3053      H3056   1.084       .  S
C3054      C3057   1.443       .  S
C3057      N3059   1.158       .  T
C3058      N3060   1.157       .  T
C3061      C3062   1.409       .  A
C3061      C3066   1.421       .  A
C3062      C3063   1.410   1_556  A
C3062      H3067   1.084       .  S
C3063      C3064   1.418       .  A
C3063      C3070   1.444       .  S
C3064      C3065   1.407       .  A
C3065      C3066   1.409   1_554  A
C3065      H3068   1.085       .  S
C3066      C3069   1.444       .  S
C3069      N3071   1.157       .  T
C3070      N3072   1.157       .  T
C3073      C3074   1.416       .  A
C3073      C3078   1.416       .  A
C3074      C3075   1.427       .  A
C3074      H3079   1.084       .  S
C3075      C3076   1.417       .  A
C3075      C3082   1.442       .  S
C3076      C3077   1.403       .  A
C3077      C3078   1.401       .  A
C3077      H3080   1.077       .  S
C3078      C3081   1.445       .  S
C3081      N3083   1.157       .  T
C3082      N3084   1.157       .  T
C3085      C3086   1.414       .  A
C3085      C3090   1.417       .  A
C3086      C3087   1.428       .  A
C3086      H3091   1.084       .  S
C3087      C3088   1.419       .  A
C3087      C3094   1.441       .  S
C3088      C3089   1.405       .  A
C3089      C3090   1.405       .  A
C3089      H3092   1.085       .  S
C3090      C3093   1.444       .  S
C3093      N3095   1.157       .  T
C3094      N3096   1.157       .  T
C3097      C3098   1.408       .  A
C3097      C3102   1.416       .  A
C3098      C3099   1.403       .  A
C3098      H3103   1.085       .  S
C3099      C3100   1.414       .  A
C3099      C3106   1.445       .  S
C3100      C3101   1.405       .  A
C3101      C3102   1.402       .  A
C3101      H3104   1.085       .  S
C3102      C3105   1.444       .  S
C3105      N3107   1.157       .  T
C3106      N3108   1.157       .  T
C3109      C3110   1.405       .  A
C3109      C3114   1.423       .  A
C3110      C3111   1.403       .  A
C3110      H3115   1.085       .  S
C3111      C3112   1.413       .  A
C3111      C3118   1.443       .  S
C3112      C3113   1.400       .  A
C3113      C3114   1.406       .  A
C3113      H3116   1.084       .  S
C3114      C3117   1.445       .  S
C3117      N3119   1.158       .  T
C3118      N3120   1.157       .  T
C3121      C3122   1.407       .  A
C3121      C3126   1.410       .  A
C3122      C3123   1.400       .  A
C3122      H3127   1.085       .  S
C3123      C3124   1.406       .  A
C3123      C3130   1.441       .  S
C3124      C3125   1.407       .  A
C3125      C3126   1.405       .  A
C3125      H3128   1.085       .  S
C3126      C3129   1.443       .  S
C3129      N3131   1.157       .  T
C3130      N3132   1.157       .  T
C3133      C3134   1.405       .  A
C3133      C3138   1.421       .  A
C3134      C3135   1.404       .  A
C3134      H3139   1.085       .  S
C3135      C3136   1.420       .  A
C3135      C3142   1.444       .  S
C3136      C3137   1.404       .  A
C3137      C3138   1.401       .  A
C3137      H3140   1.085       .  S
C3138      C3141   1.445       .  S
C3141      N3143   1.158       .  T
C3142      N3144   1.158       .  T
C3145      C3146   1.399       .  A
C3145      C3150   1.415       .  A
C3146      C3147   1.393       .  A
C3146      H3151   1.085       .  S
C3147      C3148   1.417       .  A
C3147      C3154   1.447       .  S
C3148      C3149   1.400       .  A
C3149      C3150   1.400       .  A
C3149      H3152   1.085       .  S
C3150      C3153   1.444       .  S
C3153      N3155   1.157       .  T
C3154      N3156   1.158       .  T
C3157      C3158   1.402       .  A
C3157      C3162   1.413       .  A
C3158      C3159   1.401       .  A
C3158      H3163   1.083       .  S
C3159      C3160   1.413       .  A
C3159      C3166   1.439       .  S
C3160      C3161   1.405       .  A
C3161      C3162   1.402       .  A
C3161      H3164   1.085       .  S
C3162      C3165   1.443       .  S
C3165      N3167   1.157       .  T
C3166      N3168   1.155       .  T
C3169      C3170   1.401       .  A
C3169      C3174   1.416       .  A
C3170      C3171   1.395       .  A
C3170      H3175   1.084       .  S
C3171      C3172   1.418       .  A
C3171      C3178   1.445       .  S
C3172      C3173   1.403       .  A
C3173      C3174   1.397       .  A
C3173      H3176   1.085       .  S
C3174      C3177   1.444       .  S
C3177      N3179   1.157       .  T
C3178      N3180   1.157       .  T
C3181      C3182   1.399       .  A
C3181      C3186   1.413       .  A
C3182      C3183   1.390       .  A
C3182      H3187   1.086       .  S
C3183      C3184   1.414       .  A
C3183      C3190   1.448       .  S
C3184      C3185   1.407       .  A
C3185      C3186   1.413       .  A
C3185      H3188   1.084       .  S
C3186      C3189   1.442       .  S
C3189      N3191   1.157       .  T
C3190      N3192   1.158       .  T
C3193      C3194   1.411       .  A
C3193      C3198   1.417       .  A
C3194      C3195   1.411       .  A
C3194      H3199   1.084       .  S
C3195      C3196   1.415       .  A
C3195      C3202   1.443       .  S
C3196      C3197   1.410       .  A
C3197      C3198   1.403       .  A
C3197      H3200   1.085       .  S
C3198      C3201   1.445       .  S
C3201      N3203   1.158       .  T
C3202      N3204   1.157       .  T
C3205      C3206   1.404       .  A
C3205      C3210   1.413       .  A
C3206      C3207   1.389       .  A
C3206      H3211   1.085       .  S
C3207      C3208   1.413       .  A
C3207      C3214   1.444       .  S
C3208      C3209   1.408       .  A
C3209      C3210   1.397       .  A
C3209      H3212   1.085       .  S
C3210      C3213   1.446       .  S
C3213      N3215   1.158       .  T
C3214      N3216   1.157       .  T
C3217      C3218   1.408       .  A
C3217      C3222   1.417       .  A
C3218      C3219   1.405       .  A
C3218      H3223   1.085       .  S
C3219      C3220   1.411       .  A
C3219      C3226   1.441       .  S
C3220      C3221   1.404       .  A
C3221      C3222   1.397       .  A
C3221      H3224   1.085       .  S
C3222      C3225   1.446       .  S
C3225      N3227   1.158       .  T
C3226      N3228   1.157       .  T
C3229      C3230   1.405       .  A
C3229      C3234   1.414       .  A
C3230      C3231   1.393       .  A
C3230      H3235   1.085       .  S
C3231      C3232   1.419       .  A
C3231      C3238   1.444       .  S
C3232      C3233   1.411       .  A
C3233      C3234   1.410       .  A
C3233      H3236   1.084       .  S
C3234      C3237   1.442       .  S
C3237      N3239   1.157       .  T
C3238      N3240   1.156       .  T
C3241      C3242   1.400       .  A
C3241      C3246   1.410       .  A
C3242      C3243   1.402       .  A
C3242      H3247   1.086       .  S
C3243      C3244   1.415       .  A
C3243      C3250   1.440       .  S
C3244      C3245   1.409       .  A
C3245      C3246   1.411       .  A
C3245      H3248   1.084       .  S
C3246      C3249   1.441       .  S
C3249      N3251   1.156       .  T
C3250      N3252   1.156       .  T
C3253      C3254   1.408       .  A
C3253      C3258   1.417       .  A
C3254      C3255   1.405   1_556  A
C3254      H3259   1.085       .  S
C3255      C3256   1.416       .  A
C3255      C3262   1.445       .  S
C3256      C3257   1.406       .  A
C3257      C3258   1.406   1_554  A
C3257      H3260   1.085       .  S
C3258      C3261   1.444       .  S
C3261      N3263   1.157       .  T
C3262      N3264   1.157       .  T
C3265      C3266   1.409       .  A
C3265      C3270   1.411       .  A
C3266      C3267   1.406   1_655  A
C3266      H3271   1.084       .  S
C3267      C3268   1.414       .  A
C3267      C3274   1.444       .  S
C3268      C3269   1.416       .  A
C3269      C3270   1.419   1_455  A
C3269      H3272   1.084       .  S
C3270      C3273   1.442       .  S
C3273      N3275   1.157       .  T
C3274      N3276   1.157       .  T
C3277      C3278   1.401       .  A
C3277      C3282   1.420       .  A
C3278      C3279   1.395   1_556  A
C3278      H3283   1.085       .  S
C3279      C3280   1.417       .  A
C3279      C3286   1.442       .  S
C3280      C3281   1.405       .  A
C3281      C3282   1.411   1_554  A
C3281      H3284   1.085       .  S
C3282      C3285   1.444       .  S
C3285      N3287   1.158       .  T
C3286      N3288   1.158       .  T
C3289      C3290   1.413       .  A
C3289      C3294   1.422       .  A
C3290      C3291   1.419   1_545  A
C3290      H3295   1.084       .  S
C3291      C3292   1.420       .  A
C3291      C3298   1.441       .  S
C3292      C3293   1.408       .  A
C3293      C3294   1.403   1_565  A
C3293      H3296   1.085       .  S
C3294      C3297   1.445       .  S
C3297      N3299   1.157       .  T
C3298      N3300   1.157       .  T
C3301      C3302   1.407       .  A
C3301      C3306   1.411       .  A
C3302      C3303   1.399       .  A
C3302      H3307   1.085       .  S
C3303      C3304   1.407       .  A
C3303      C3310   1.444       .  S
C3304      C3305   1.403       .  A
C3305      C3306   1.392       .  A
C3305      H3308   1.086       .  S
C3306      C3309   1.446       .  S
C3309      N3311   1.158       .  T
C3310      N3312   1.157       .  T
C3313      C3314   1.407       .  A
C3313      C3318   1.416       .  A
C3314      C3315   1.413   1_655  A
C3314      H3319   1.084       .  S
C3315      C3316   1.420       .  A
C3315      C3322   1.443       .  S
C3316      C3317   1.406       .  A
C3317      C3318   1.405   1_455  A
C3317      H3320   1.085       .  S
C3318      C3321   1.444       .  S
C3321      N3323   1.157       .  T
C3322      N3324   1.157       .  T
C3325      C3326   1.416       .  A
C3325      C3330   1.421       .  A
C3326      C3327   1.424   1_565  A
C3326      H3331   1.084       .  S
C3327      C3328   1.420       .  A
C3327      C3334   1.443       .  S
C3328      C3329   1.406       .  A
C3329      C3330   1.400   1_545  A
C3329      H3332   1.085       .  S
C3330      C3333   1.445       .  S
C3333      N3335   1.157       .  T
C3334      N3336   1.157       .  T
C3337      C3338   1.401       .  A
C3337      C3342   1.425       .  A
C3338      C3339   1.401       .  A
C3338      H3343   1.085       .  S
C3339      C3340   1.424       .  A
C3339      C3346   1.444       .  S
C3340      C3341   1.404       .  A
C3341      C3342   1.408       .  A
C3341      H3344   1.085       .  S
C3342      C3345   1.444       .  S
C3345      N3347   1.157       .  T
C3346      N3348   1.157       .  T
C3349      C3350   1.404       .  A
C3349      C3354   1.422       .  A
C3350      C3351   1.399       .  A
C3350      H3355   1.085       .  S
C3351      C3352   1.423       .  A
C3351      C3358   1.446       .  S
C3352      C3353   1.411       .  A
C3353      C3354   1.416       .  A
C3353      H3356   1.084       .  S
C3354      C3357   1.444       .  S
C3357      N3359   1.158       .  T
C3358      N3360   1.157       .  T
C3361      C3362   1.411       .  A
C3361      C3366   1.409       .  A
C3362      C3363   1.406       .  A
C3362      H3367   1.085       .  S
C3363      C3364   1.411       .  A
C3363      C3370   1.441       .  S
C3364      C3365   1.414       .  A
C3365      C3366   1.406       .  A
C3365      H3368   1.085       .  S
C3366      C3369   1.443       .  S
C3369      N3371   1.157       .  T
C3370      N3372   1.156       .  T
C3373      C3374   1.396       .  A
C3373      C3378   1.421       .  A
C3374      C3375   1.401       .  A
C3374      H3379   1.085       .  S
C3375      C3376   1.430       .  A
C3375      C3382   1.445       .  S
C3376      C3377   1.405       .  A
C3377      C3378   1.408       .  A
C3377      H3380   1.084       .  S
C3378      C3381   1.444       .  S
C3381      N3383   1.157       .  T
C3382      N3384   1.157       .  T
C3385      C3386   1.404       .  A
C3385      C3390   1.411       .  A
C3386      C3387   1.395       .  A
C3386      H3391   1.085       .  S
C3387      C3388   1.408       .  A
C3387      C3394   1.444       .  S
C3388      C3389   1.399       .  A
C3389      C3390   1.396       .  A
C3389      H3392   1.082       .  S
C3390      C3393   1.444       .  S
C3393      N3395   1.157       .  T
C3394      N3396   1.157       .  T
C3397      C3398   1.410       .  A
C3397      C3402   1.416       .  A
C3398      C3399   1.415       .  A
C3398      H3403   1.083       .  S
C3399      C3400   1.419       .  A
C3399      C3406   1.443       .  S
C3400      C3401   1.406       .  A
C3401      C3402   1.400       .  A
C3401      H3404   1.085       .  S
C3402      C3405   1.444       .  S
C3405      N3407   1.157       .  T
C3406      N3408   1.157       .  T
C3409      C3410   1.411       .  A
C3409      C3414   1.401       .  A
C3410      C3411   1.391       .  A
C3410      H3415   1.084       .  S
C3411      C3412   1.398       .  A
C3411      C3418   1.444       .  S
C3412      C3413   1.412       .  A
C3413      C3414   1.398       .  A
C3413      H3416   1.085       .  S
C3414      C3417   1.442       .  S
C3417      N3419   1.157       .  T
C3418      N3420   1.157       .  T
C3421      C3422   1.395       .  A
C3421      C3426   1.407       .  A
C3422      C3423   1.391       .  A
C3422      H3427   1.086       .  S
C3423      C3424   1.423       .  A
C3423      C3430   1.446       .  S
C3424      C3425   1.408       .  A
C3425      C3426   1.406       .  A
C3425      H3428   1.084       .  S
C3426      C3429   1.440       .  S
C3429      N3431   1.157       .  T
C3430      N3432   1.158       .  T
C3433      C3434   1.414       .  A
C3433      C3438   1.416       .  A
C3434      C3435   1.403       .  A
C3434      H3439   1.084       .  S
C3435      C3436   1.405       .  A
C3435      C3442   1.443       .  S
C3436      C3437   1.405       .  A
C3437      C3438   1.407       .  A
C3437      H3440   1.085       .  S
C3438      C3441   1.443       .  S
C3441      N3443   1.157       .  T
C3442      N3444   1.157       .  T
C3445      C3446   1.410       .  A
C3445      C3450   1.424       .  A
C3446      C3447   1.411       .  A
C3446      H3451   1.084       .  S
C3447      C3448   1.415       .  A
C3447      C3454   1.444       .  S
C3448      C3449   1.404       .  A
C3449      C3450   1.414       .  A
C3449      H3452   1.085       .  S
C3450      C3453   1.442       .  S
C3453      N3455   1.157       .  T
C3454      N3456   1.157       .  T
C3457      C3458   1.399       .  A
C3457      C3462   1.407       .  A
C3458      C3459   1.395       .  A
C3458      H3463   1.086       .  S
C3459      C3460   1.409       .  A
C3459      C3466   1.437       .  S
C3460      C3461   1.407       .  A
C3461      C3462   1.403       .  A
C3461      H3464   1.082       .  S
C3462      C3465   1.443       .  S
C3465      N3467   1.157       .  T
C3466      N3468   1.155       .  T
C3469      C3470   1.420       .  A
C3469      C3474   1.415       .  A
C3470      C3471   1.417       .  A
C3470      H3475   1.084       .  S
C3471      C3472   1.409       .  A
C3471      C3478   1.440       .  S
C3472      C3473   1.414       .  A
C3473      C3474   1.408       .  A
C3473      H3476   1.085       .  S
C3474      C3477   1.442       .  S
C3477      N3479   1.156       .  T
C3478      N3480   1.157       .  T
C3481      C3482   1.411       .  A
C3481      C3486   1.404       .  A
C3482      C3483   1.407       .  A
C3482      H3487   1.084       .  S
C3483      C3484   1.409       .  A
C3483      C3490   1.444       .  S
C3484      C3485   1.411       .  A
C3485      C3486   1.402       .  A
C3485      H3488   1.085       .  S
C3486      C3489   1.442       .  S
C3489      N3491   1.156       .  T
C3490      N3492   1.157       .  T
C3493      C3494   1.407       .  A
C3493      C3498   1.420       .  A
C3494      C3495   1.406       .  A
C3494      H3499   1.084       .  S
C3495      C3496   1.420       .  A
C3495      C3502   1.445       .  S
C3496      C3497   1.404       .  A
C3497      C3498   1.403       .  A
C3497      H3500   1.085       .  S
C3498      C3501   1.445       .  S
C3501      N3503   1.157       .  T
C3502      N3504   1.158       .  T
C3505      C3506   1.409       .  A
C3505      C3510   1.422       .  A
C3506      C3507   1.416       .  A
C3506      H3511   1.085       .  S
C3507      C3508   1.419       .  A
C3507      C3514   1.435       .  S
C3508      C3509   1.408       .  A
C3509      C3510   1.406       .  A
C3509      H3512   1.084       .  S
C3510      C3513   1.444       .  S
C3513      N3515   1.157       .  T
C3514      N3516   1.154       .  T
C3517      C3518   1.400       .  A
C3517      C3522   1.421       .  A
C3518      C3519   1.407       .  A
C3518      H3523   1.085       .  S
C3519      C3520   1.420       .  A
C3519      C3526   1.439       .  S
C3520      C3521   1.405       .  A
C3521      C3522   1.415       .  A
C3521      H3524   1.084       .  S
C3522      C3525   1.443       .  S
C3525      N3527   1.157       .  T
C3526      N3528   1.156       .  T
C3529      C3530   1.408       .  A
C3529      C3534   1.415       .  A
C3530      C3531   1.406       .  A
C3530      H3535   1.085       .  S
C3531      C3532   1.410       .  A
C3531      C3538   1.444       .  S
C3532      C3533   1.402       .  A
C3533      C3534   1.402       .  A
C3533      H3536   1.081       .  S
C3534      C3537   1.444       .  S
C3537      N3539   1.157       .  T
C3538      N3540   1.157       .  T
C3541      C3542   1.408       .  A
C3541      C3546   1.405       .  A
C3542      C3543   1.400       .  A
C3542      H3547   1.085       .  S
C3543      C3544   1.407       .  A
C3543      C3550   1.444       .  S
C3544      C3545   1.410       .  A
C3545      C3546   1.400       .  A
C3545      H3548   1.085       .  S
C3546      C3549   1.444       .  S
C3549      N3551   1.157       .  T
C3550      N3552   1.157       .  T
C3553      C3554   1.399       .  A
C3553      C3558   1.416       .  A
C3554      C3555   1.395       .  A
C3554      H3559   1.086       .  S
C3555      C3556   1.423       .  A
C3555      C3562   1.445       .  S
C3556      C3557   1.408       .  A
C3557      C3558   1.409       .  A
C3557      H3560   1.084       .  S
C3558      C3561   1.444       .  S
C3561      N3563   1.157       .  T
C3562      N3564   1.157       .  T
C3565      C3566   1.403       .  A
C3565      C3570   1.401       .  A
C3566      C3567   1.403       .  A
C3566      H3571   1.085       .  S
C3567      C3568   1.409       .  A
C3567      C3574   1.441       .  S
C3568      C3569   1.405       .  A
C3569      C3570   1.381       .  A
C3569      H3572   1.086       .  S
C3570      C3573   1.446       .  S
C3573      N3575   1.157       .  T
C3574      N3576   1.157       .  T
C3577      C3578   1.407       .  A
C3577      C3582   1.416       .  A
C3578      C3579   1.406       .  A
C3578      H3583   1.081       .  S
C3579      C3580   1.414       .  A
C3579      C3586   1.444       .  S
C3580      C3581   1.410       .  A
C3581      C3582   1.415       .  A
C3581      H3584   1.084       .  S
C3582      C3585   1.442       .  S
C3585      N3587   1.157       .  T
C3586      N3588   1.157       .  T
C3589      C3590   1.403       .  A
C3589      C3594   1.420       .  A
C3590      C3591   1.403       .  A
C3590      H3595   1.085       .  S
C3591      C3592   1.421       .  A
C3591      C3598   1.444       .  S
C3592      C3593   1.402       .  A
C3593      C3594   1.401       .  A
C3593      H3596   1.082       .  S
C3594      C3597   1.444       .  S
C3597      N3599   1.157       .  T
C3598      N3600   1.157       .  T
C3601      C3602   1.400       .  A
C3601      C3606   1.419       .  A
C3602      C3603   1.393       .  A
C3602      H3607   1.085       .  S
C3603      C3604   1.419       .  A
C3603      C3610   1.444       .  S
C3604      C3605   1.405       .  A
C3605      C3606   1.407       .  A
C3605      H3608   1.084       .  S
C3606      C3609   1.442       .  S
C3609      N3611   1.156   1_556  T
C3610      N3612   1.157       .  T
C3613      C3614   1.397       .  A
C3613      C3618   1.414       .  A
C3614      C3615   1.398       .  A
C3614      H3619   1.086       .  S
C3615      C3616   1.423       .  A
C3615      C3622   1.441       .  S
C3616      C3617   1.411       .  A
C3617      C3618   1.410       .  A
C3617      H3620   1.084       .  S
C3618      C3621   1.444       .  S
C3621      N3623   1.157       .  T
C3622      N3624   1.156       .  T
C3625      C3626   1.409       .  A
C3625      C3630   1.408       .  A
C3626      C3627   1.411       .  A
C3626      H3631   1.084       .  S
C3627      C3628   1.410       .  A
C3627      C3634   1.443       .  S
C3628      C3629   1.402       .  A
C3629      C3630   1.395       .  A
C3629      H3632   1.084       .  S
C3630      C3633   1.443       .  S
C3633      N3635   1.156       .  T
C3634      N3636   1.157       .  T
C3637      C3638   1.409       .  A
C3637      C3642   1.421       .  A
C3638      C3639   1.409       .  A
C3638      H3643   1.084       .  S
C3639      C3640   1.412       .  A
C3639      C3646   1.443       .  S
C3640      C3641   1.398       .  A
C3641      C3642   1.396       .  A
C3641      H3644   1.085       .  S
C3642      C3645   1.445       .  S
C3645      N3647   1.157       .  T
C3646      N3648   1.157       .  T
C3649      C3650   1.413       .  A
C3649      C3654   1.406       .  A
C3650      C3651   1.392       .  A
C3650      H3655   1.085       .  S
C3651      C3652   1.406       .  A
C3651      C3658   1.445       .  S
C3652      C3653   1.416       .  A
C3653      C3654   1.404       .  A
C3653      H3656   1.084       .  S
C3654      C3657   1.444       .  S
C3657      N3659   1.157       .  T
C3658      N3660   1.157       .  T
C3661      C3662   1.415       .  A
C3661      C3666   1.428       .  A
C3662      C3663   1.431       .  A
C3662      H3667   1.084       .  S
C3663      C3664   1.424       .  A
C3663      C3670   1.440       .  S
C3664      C3665   1.405       .  A
C3665      C3666   1.407       .  A
C3665      H3668   1.086       .  S
C3666      C3669   1.444       .  S
C3669      N3671   1.157       .  T
C3670      N3672   1.157       .  T
C3673      C3674   1.402       .  A
C3673      C3678   1.425       .  A
C3674      C3675   1.401       .  A
C3674      H3679   1.085       .  S
C3675      C3676   1.422       .  A
C3675      C3682   1.443       .  S
C3676      C3677   1.407       .  A
C3677      C3678   1.418       .  A
C3677      H3680   1.084       .  S
C3678      C3681   1.443       .  S
C3681      N3683   1.157       .  T
C3682      N3684   1.157       .  T
C3685      C3686   1.403       .  A
C3685      C3690   1.412       .  A
C3686      C3687   1.398       .  A
C3686      H3691   1.085       .  S
C3687      C3688   1.418       .  A
C3687      C3694   1.443       .  S
C3688      C3689   1.410       .  A
C3689      C3690   1.408       .  A
C3689      H3692   1.084       .  S
C3690      C3693   1.443       .  S
C3693      N3695   1.157       .  T
C3694      N3696   1.157       .  T
C3697      C3698   1.404       .  A
C3697      C3702   1.405       .  A
C3698      C3699   1.392       .  A
C3698      H3703   1.080       .  S
C3699      C3700   1.409       .  A
C3699      C3706   1.445       .  S
C3700      C3701   1.411       .  A
C3701      C3702   1.396       .  A
C3701      H3704   1.084       .  S
C3702      C3705   1.444       .  S
C3705      N3707   1.157       .  T
C3706      N3708   1.157       .  T
C3709      C3710   1.411       .  A
C3709      C3714   1.419       .  A
C3710      C3711   1.419       .  A
C3710      H3715   1.084       .  S
C3711      C3712   1.418       .  A
C3711      C3718   1.442       .  S
C3712      C3713   1.403       .  A
C3713      C3714   1.387       .  A
C3713      H3716   1.084       .  S
C3714      C3717   1.445       .  S
C3717      N3719   1.156       .  T
C3718      N3720   1.157       .  T
C3721      C3722   1.411       .  A
C3721      C3726   1.421       .  A
C3722      C3723   1.406       .  A
C3722      H3727   1.084       .  S
C3723      C3724   1.419       .  A
C3723      C3730   1.443       .  S
C3724      C3725   1.415       .  A
C3725      C3726   1.424       .  A
C3725      H3728   1.084       .  S
C3726      C3729   1.442       .  S
C3729      N3731   1.157       .  T
C3730      N3732   1.157       .  T
C3733      C3734   1.402       .  A
C3733      C3738   1.419       .  A
C3734      C3735   1.407       .  A
C3734      H3739   1.085       .  S
C3735      C3736   1.419       .  A
C3735      C3742   1.440       .  S
C3736      C3737   1.396       .  A
C3737      C3738   1.393       .  A
C3737      H3740   1.084       .  S
C3738      C3741   1.441       .  S
C3741      N3743   1.156       .  T
C3742      N3744   1.156       .  T
C3745      C3746   1.403       .  A
C3745      C3750   1.420       .  A
C3746      C3747   1.399       .  A
C3746      H3751   1.085       .  S
C3747      C3748   1.418       .  A
C3747      C3754   1.446       .  S
C3748      C3749   1.405       .  A
C3749      C3750   1.411       .  A
C3749      H3752   1.085       .  S
C3750      C3753   1.442       .  S
C3753      N3755   1.157       .  T
C3754      N3756   1.157       .  T
C3757      C3758   1.409       .  A
C3757      C3762   1.425       .  A
C3758      C3759   1.418       .  A
C3758      H3763   1.084       .  S
C3759      C3760   1.424       .  A
C3759      C3766   1.443       .  S
C3760      C3761   1.404       .  A
C3761      C3762   1.407       .  A
C3761      H3764   1.085       .  S
C3762      C3765   1.445       .  S
C3765      N3767   1.157       .  T
C3766      N3768   1.158       .  T
C3769      C3770   1.409       .  A
C3769      C3774   1.413       .  A
C3770      C3771   1.410       .  A
C3770      H3775   1.084       .  S
C3771      C3772   1.416       .  A
C3771      C3778   1.441       .  S
C3772      C3773   1.405       .  A
C3773      C3774   1.397       .  A
C3773      H3776   1.085       .  S
C3774      C3777   1.442       .  S
C3777      N3779   1.156       .  T
C3778      N3780   1.157       .  T
C3781      C3782   1.410       .  A
C3781      C3786   1.400       .  A
C3782      C3783   1.394       .  A
C3782      H3787   1.085       .  S
C3783      C3784   1.407       .  A
C3783      C3790   1.444       .  S
C3784      C3785   1.415       .  A
C3785      C3786   1.391       .  A
C3785      H3788   1.083       .  S
C3786      C3789   1.445       .  S
C3789      N3791   1.157       .  T
C3790      N3792   1.157       .  T
C3793      C3794   1.416       .  A
C3793      C3798   1.414       .  A
C3794      C3795   1.411       .  A
C3794      H3799   1.083       .  S
C3795      C3796   1.411       .  A
C3795      C3802   1.443       .  S
C3796      C3797   1.413       .  A
C3797      C3798   1.414       .  A
C3797      H3800   1.085       .  S
C3798      C3801   1.442       .  S
C3801      N3803   1.157       .  T
C3802      N3804   1.157       .  T
C3805      C3806   1.408       .  A
C3805      C3810   1.418       .  A
C3806      C3807   1.405       .  A
C3806      H3811   1.085       .  S
C3807      C3808   1.418       .  A
C3807      C3814   1.444       .  S
C3808      C3809   1.410       .  A
C3809      C3810   1.415       .  A
C3809      H3812   1.084       .  S
C3810      C3813   1.441       .  S
C3813      N3815   1.157       .  T
C3814      N3816   1.157       .  T
C3817      C3818   1.400       .  A
C3817      C3822   1.411       .  A
C3818      C3819   1.401       .  A
C3818      H3823   1.085       .  S
C3819      C3820   1.412       .  A
C3819      C3826   1.440       .  S
C3820      C3821   1.398       .  A
C3821      C3822   1.388       .  A
C3821      H3824   1.086       .  S
C3822      C3825   1.446       .  S
C3825      N3827   1.157       .  T
C3826      N3828   1.157       .  T
C3829      C3830   1.390       .  A
C3829      C3834   1.409       .  A
C3830      C3831   1.386       .  A
C3830      H3835   1.086       .  S
C3831      C3832   1.424       .  A
C3831      C3838   1.447       .  S
C3832      C3833   1.408       .  A
C3833      C3834   1.409       .  A
C3833      H3836   1.084       .  S
C3834      C3837   1.441       .  S
C3837      N3839   1.157       .  T
C3838      N3840   1.157       .  T
C3841      C3842   1.409       .  A
C3841      C3846   1.412       .  A
C3842      C3843   1.401       .  A
C3842      H3847   1.084       .  S
C3843      C3844   1.413       .  A
C3843      C3850   1.444       .  S
C3844      C3845   1.410       .  A
C3845      C3846   1.404       .  A
C3845      H3848   1.085       .  S
C3846      C3849   1.444       .  S
C3849      N3851   1.157       .  T
C3850      N3852   1.157       .  T
C3853      C3854   1.409       .  A
C3853      C3858   1.419       .  A
C3854      C3855   1.407       .  A
C3854      H3859   1.084       .  S
C3855      C3856   1.413       .  A
C3855      C3862   1.443       .  S
C3856      C3857   1.400       .  A
C3857      C3858   1.392       .  A
C3857      H3860   1.084       .  S
C3858      C3861   1.445       .  S
C3861      N3863   1.157       .  T
C3862      N3864   1.157       .  T
C3865      C3866   1.415       .  A
C3865      C3870   1.418       .  A
C3866      C3867   1.425       .  A
C3866      H3871   1.084       .  S
C3867      C3868   1.420       .  A
C3867      C3874   1.441       .  S
C3868      C3869   1.407       .  A
C3869      C3870   1.400       .  A
C3869      H3872   1.085       .  S
C3870      C3873   1.442       .  S
C3873      N3875   1.156       .  T
C3874      N3876   1.157       .  T
C3877      C3878   1.408       .  A
C3877      C3882   1.419       .  A
C3878      C3879   1.411       .  A
C3878      H3883   1.081       .  S
C3879      C3880   1.418       .  A
C3879      C3886   1.441       .  S
C3880      C3881   1.414       .  A
C3881      C3882   1.413       .  A
C3881      H3884   1.084       .  S
C3882      C3885   1.445       .  S
C3885      N3887   1.158       .  T
C3886      N3888   1.156       .  T
C3889      C3890   1.405       .  A
C3889      C3894   1.407       .  A
C3890      C3891   1.393       .  A
C3890      H3895   1.084       .  S
C3891      C3892   1.408       .  A
C3891      C3898   1.446       .  S
C3892      C3893   1.408       .  A
C3893      C3894   1.405       .  A
C3893      H3896   1.085       .  S
C3894      C3897   1.443       .  S
C3897      N3899   1.157       .  T
C3898      N3900   1.157       .  T
C3901      C3902   1.403       .  A
C3901      C3906   1.412       .  A
C3902      C3903   1.392       .  A
C3902      H3907   1.085       .  S
C3903      C3904   1.407       .  A
C3903      C3910   1.445       .  S
C3904      C3905   1.402       .  A
C3905      C3906   1.405       .  A
C3905      H3908   1.082       .  S
C3906      C3909   1.443       .  S
C3909      N3911   1.157       .  T
C3910      N3912   1.157       .  T
C3913      C3914   1.395       .  A
C3913      C3918   1.415       .  A
C3914      C3915   1.400       .  A
C3914      H3919   1.085       .  S
C3915      C3916   1.421       .  A
C3915      C3922   1.440       .  S
C3916      C3917   1.403       .  A
C3917      C3918   1.413       .  A
C3917      H3920   1.084       .  S
C3918      C3921   1.436       .  S
C3921      N3923   1.157   1_554  T
C3922      N3924   1.158       .  T
C3925      C3926   1.409       .  A
C3925      C3930   1.413       .  A
C3926      C3927   1.413       .  A
C3926      H3931   1.085       .  S
C3927      C3928   1.422       .  A
C3927      C3934   1.443       .  S
C3928      C3929   1.418       .  A
C3929      C3930   1.424       .  A
C3929      H3932   1.084       .  S
C3930      C3933   1.441       .  S
C3933      N3935   1.157       .  T
C3934      N3936   1.157       .  T
C3937      C3938   1.409       .  A
C3937      C3942   1.410       .  A
C3938      C3939   1.393       .  A
C3938      H3943   1.084       .  S
C3939      C3940   1.410       .  A
C3939      C3946   1.445       .  S
C3940      C3941   1.410       .  A
C3941      C3942   1.401       .  A
C3941      H3944   1.085       .  S
C3942      C3945   1.442       .  S
C3945      N3947   1.157       .  T
C3946      N3948   1.157       .  T
C3949      C3950   1.411       .  A
C3949      C3954   1.411       .  A
C3950      C3951   1.392       .  A
C3950      H3955   1.084       .  S
C3951      C3952   1.409       .  A
C3951      C3958   1.446       .  S
C3952      C3953   1.402       .  A
C3953      C3954   1.394       .  A
C3953      H3956   1.083       .  S
C3954      C3957   1.440       .  S
C3957      N3959   1.156       .  T
C3958      N3960   1.158       .  T
C3961      C3962   1.403       .  A
C3961      C3966   1.426       .  A
C3962      C3963   1.411       .  A
C3962      H3967   1.085       .  S
C3963      C3964   1.428       .  A
C3963      C3970   1.444       .  S
C3964      C3965   1.404       .  A
C3965      C3966   1.410       .  A
C3965      H3968   1.085       .  S
C3966      C3969   1.443       .  S
C3969      N3971   1.157       .  T
C3970      N3972   1.157       .  T
C3973      C3974   1.406       .  A
C3973      C3978   1.418       .  A
C3974      C3975   1.408       .  A
C3974      H3979   1.085       .  S
C3975      C3976   1.419       .  A
C3975      C3982   1.441       .  S
C3976      C3977   1.407       .  A
C3977      C3978   1.408       .  A
C3977      H3980   1.084       .  S
C3978      C3981   1.443       .  S
C3981      N3983   1.157       .  T
C3982      N3984   1.156       .  T
C3985      C3986   1.402       .  A
C3985      C3990   1.420       .  A
C3986      C3987   1.397       .  A
C3986      H3991   1.085       .  S
C3987      C3988   1.419       .  A
C3987      C3994   1.445       .  S
C3988      C3989   1.405       .  A
C3989      C3990   1.408       .  A
C3989      H3992   1.084       .  S
C3990      C3993   1.444       .  S
C3993      N3995   1.157       .  T
C3994      N3996   1.157       .  T
C3997      C3998   1.403       .  A
C3997      C4002   1.407       .  A
C3998      C3999   1.402       .  A
C3998      H4003   1.079       .  S
C3999      C4000   1.409       .  A
C3999      C4006   1.440       .  S
C4000      C4001   1.405       .  A
C4001      C4002   1.394       .  A
C4001      H4004   1.086       .  S
C4002      C4005   1.441       .  S
C4005      N4007   1.156       .  T
C4006      N4008   1.156       .  T
C4009      C4010   1.402       .  A
C4009      C4014   1.410       .  A
C4010      C4011   1.401       .  A
C4010      H4015   1.086       .  S
C4011      C4012   1.416       .  A
C4011      C4018   1.446       .  S
C4012      C4013   1.407       .  A
C4013      C4014   1.411       .  A
C4013      H4016   1.084       .  S
C4014      C4017   1.442       .  S
C4017      N4019   1.157       .  T
C4018      N4020   1.157       .  T
C4021      C4022   1.404       .  A
C4021      C4026   1.418       .  A
C4022      C4023   1.392       .  A
C4022      H4027   1.085       .  S
C4023      C4024   1.415       .  A
C4023      C4030   1.445       .  S
C4024      C4025   1.403       .  A
C4025      C4026   1.414       .  A
C4025      H4028   1.081       .  S
C4026      C4029   1.439       .  S
C4029      N4031   1.156       .  T
C4030      N4032   1.157       .  T
C4033      C4034   1.399       .  A
C4033      C4038   1.407       .  A
C4034      C4035   1.390       .  A
C4034      H4039   1.085       .  S
C4035      C4036   1.413       .  A
C4035      C4042   1.446       .  S
C4036      C4037   1.404       .  A
C4037      C4038   1.395       .  A
C4037      H4040   1.085       .  S
C4038      C4041   1.444       .  S
C4041      N4043   1.157       .  T
C4042      N4044   1.157       .  T
C4045      C4046   1.413       .  A
C4045      C4050   1.420       .  A
C4046      C4047   1.424       .  A
C4046      H4051   1.084       .  S
C4047      C4048   1.421       .  A
C4047      C4054   1.442       .  S
C4048      C4049   1.407       .  A
C4049      C4050   1.406       .  A
C4049      H4052   1.085       .  S
C4050      C4053   1.443       .  S
C4053      N4055   1.157       .  T
C4054      N4056   1.157       .  T
C4057      C4058   1.415       .  A
C4057      C4062   1.419       .  A
C4058      C4059   1.411       .  A
C4058      H4063   1.082       .  S
C4059      C4060   1.412       .  A
C4059      C4066   1.442       .  S
C4060      C4061   1.415       .  A
C4061      C4062   1.423       .  A
C4061      H4064   1.084       .  S
C4062      C4065   1.442       .  S
C4065      N4067   1.157       .  T
C4066      N4068   1.157       .  T
C4069      C4070   1.406       .  A
C4069      C4074   1.421       .  A
C4070      C4071   1.403       .  A
C4070      H4075   1.082       .  S
C4071      C4072   1.417       .  A
C4071      C4078   1.444       .  S
C4072      C4073   1.407       .  A
C4073      C4074   1.409       .  A
C4073      H4076   1.084       .  S
C4074      C4077   1.444       .  S
C4077      N4079   1.157       .  T
C4078      N4080   1.157       .  T
C4081      C4082   1.411       .  A
C4081      C4086   1.416       .  A
C4082      C4083   1.402       .  A
C4082      H4087   1.083       .  S
C4083      C4084   1.415       .  A
C4083      C4090   1.445       .  S
C4084      C4085   1.415       .  A
C4085      C4086   1.419       .  A
C4085      H4088   1.084       .  S
C4086      C4089   1.442       .  S
C4089      N4091   1.157       .  T
C4090      N4092   1.157       .  T
C4093      C4094   1.411       .  A
C4093      C4098   1.412       .  A
C4094      C4095   1.408       .  A
C4094      H4099   1.085       .  S
C4095      C4096   1.410       .  A
C4095      C4102   1.444       .  S
C4096      C4097   1.409       .  A
C4097      C4098   1.405       .  A
C4097      H4100   1.085       .  S
C4098      C4101   1.444       .  S
C4101      N4103   1.157       .  T
C4102      N4104   1.157       .  T
C4105      C4106   1.405       .  A
C4105      C4110   1.419       .  A
C4106      C4107   1.405       .  A
C4106      H4111   1.085       .  S
C4107      C4108   1.424       .  A
C4107      C4114   1.444       .  S
C4108      C4109   1.411       .  A
C4109      C4110   1.415       .  A
C4109      H4112   1.084       .  S
C4110      C4113   1.443       .  S
C4113      N4115   1.157       .  T
C4114      N4116   1.158       .  T
C4117      C4118   1.404       .  A
C4117      C4122   1.409       .  A
C4118      C4119   1.402       .  A
C4118      H4123   1.085       .  S
C4119      C4120   1.418       .  A
C4119      C4126   1.444       .  S
C4120      C4121   1.414       .  A
C4121      C4122   1.414       .  A
C4121      H4124   1.084       .  S
C4122      C4125   1.442       .  S
C4125      N4127   1.157       .  T
C4126      N4128   1.157       .  T
C4129      C4130   1.403       .  A
C4129      C4134   1.421       .  A
C4130      C4131   1.402       .  A
C4130      H4135   1.085       .  S
C4131      C4132   1.419       .  A
C4131      C4138   1.444       .  S
C4132      C4133   1.405       .  A
C4133      C4134   1.404       .  A
C4133      H4136   1.085       .  S
C4134      C4137   1.446       .  S
C4137      N4139   1.158       .  T
C4138      N4140   1.157   1_554  T
C4141      C4142   1.401       .  A
C4141      C4146   1.420       .  A
C4142      C4143   1.405       .  A
C4142      H4147   1.085       .  S
C4143      C4144   1.426       .  A
C4143      C4150   1.445       .  S
C4144      C4145   1.404       .  A
C4145      C4146   1.405       .  A
C4145      H4148   1.084       .  S
C4146      C4149   1.445       .  S
C4149      N4151   1.157       .  T
C4150      N4152   1.157       .  T
C4153      C4154   1.404       .  A
C4153      C4158   1.419       .  A
C4154      C4155   1.398       .  A
C4154      H4159   1.086       .  S
C4155      C4156   1.425       .  A
C4155      C4162   1.447       .  S
C4156      C4157   1.417       .  A
C4157      C4158   1.429       .  A
C4157      H4160   1.084       .  S
C4158      C4161   1.441       .  S
C4161      N4163   1.157       .  T
C4162      N4164   1.157       .  T
C4165      C4166   1.404       .  A
C4165      C4170   1.409       .  A
C4166      C4167   1.407       .  A
C4166      H4171   1.085       .  S
C4167      C4168   1.420       .  A
C4167      C4174   1.444       .  S
C4168      C4169   1.410       .  A
C4169      C4170   1.404       .  A
C4169      H4172   1.084       .  S
C4170      C4173   1.443       .  S
C4173      N4175   1.157       .  T
C4174      N4176   1.158       .  T
C4177      C4178   1.407       .  A
C4177      C4182   1.409       .  A
C4178      C4179   1.403       .  A
C4178      H4183   1.085       .  S
C4179      C4180   1.420       .  A
C4179      C4186   1.445       .  S
C4180      C4181   1.416       .  A
C4181      C4182   1.413       .  A
C4181      H4184   1.084       .  S
C4182      C4185   1.442       .  S
C4185      N4187   1.157       .  T
C4186      N4188   1.158       .  T
C4189      C4190   1.414       .  A
C4189      C4194   1.425       .  A
C4190      C4191   1.425       .  A
C4190      H4195   1.084       .  S
C4191      C4192   1.424       .  A
C4191      C4198   1.443       .  S
C4192      C4193   1.403       .  A
C4193      C4194   1.402       .  A
C4193      H4196   1.085       .  S
C4194      C4197   1.442       .  S
C4197      N4199   1.156       .  T
C4198      N4200   1.158       .  T
C4201      C4202   1.403       .  A
C4201      C4206   1.418       .  A
C4202      C4203   1.404       .  A
C4202      H4207   1.085       .  S
C4203      C4204   1.412       .  A
C4203      C4210   1.443       .  S
C4204      C4205   1.400       .  A
C4205      C4206   1.398       .  A
C4205      H4208   1.085       .  S
C4206      C4209   1.446       .  S
C4209      N4211   1.157       .  T
C4210      N4212   1.157       .  T
C4213      C4214   1.394       .  A
C4213      C4218   1.426       .  A
C4214      C4215   1.393       .  A
C4214      H4219   1.085       .  S
C4215      C4216   1.433       .  A
C4215      C4222   1.447       .  S
C4216      C4217   1.402       .  A
C4217      C4218   1.411       .  A
C4217      H4220   1.084       .  S
C4218      C4221   1.444       .  S
C4221      N4223   1.158       .  T
C4222      N4224   1.157       .  T
C4225      C4226   1.404       .  A
C4225      C4230   1.425       .  A
C4226      C4227   1.407       .  A
C4226      H4231   1.084       .  S
C4227      C4228   1.423       .  A
C4227      C4234   1.445       .  S
C4228      C4229   1.400       .  A
C4229      C4230   1.401       .  A
C4229      H4232   1.085       .  S
C4230      C4233   1.445       .  S
C4233      N4235   1.157       .  T
C4234      N4236   1.157   1_554  T
C4237      C4238   1.401       .  A
C4237      C4242   1.414       .  A
C4238      C4239   1.398       .  A
C4238      H4243   1.085       .  S
C4239      C4240   1.418       .  A
C4239      C4246   1.444       .  S
C4240      C4241   1.406       .  A
C4241      C4242   1.397       .  A
C4241      H4244   1.084       .  S
C4242      C4245   1.446       .  S
C4245      N4247   1.158       .  T
C4246      N4248   1.157       .  T
C4249      C4250   1.398       .  A
C4249      C4254   1.410       .  A
C4250      C4251   1.395       .  A
C4250      H4255   1.050       .  S
C4251      C4252   1.406       .  A
C4251      C4258   1.443       .  S
C4252      C4253   1.409       .  A
C4253      C4254   1.405       .  A
C4253      H4256   1.082       .  S
C4254      C4257   1.444       .  S
C4257      N4259   1.157       .  T
C4258      N4260   1.156       .  T
C4261      C4262   1.399       .  A
C4261      C4266   1.426       .  A
C4262      C4263   1.405       .  A
C4262      H4267   1.085       .  S
C4263      C4264   1.428       .  A
C4263      C4270   1.443       .  S
C4264      C4265   1.399       .  A
C4265      C4266   1.403       .  A
C4265      H4268   1.085       .  S
C4266      C4269   1.444       .  S
C4269      N4271   1.157       .  T
C4270      N4272   1.157       .  T
C4273      C4274   1.411       .  A
C4273      C4278   1.411       .  A
C4274      C4275   1.409       .  A
C4274      H4279   1.084       .  S
C4275      C4276   1.409       .  A
C4275      C4282   1.442       .  S
C4276      C4277   1.407       .  A
C4277      C4278   1.395       .  A
C4277      H4280   1.085       .  S
C4278      C4281   1.445       .  S
C4281      N4283   1.157       .  T
C4282      N4284   1.157       .  T
C4285      C4286   1.411       .  A
C4285      C4290   1.419       .  A
C4286      C4287   1.411       .  A
C4286      H4291   1.084       .  S
C4287      C4288   1.420       .  A
C4287      C4294   1.444       .  S
C4288      C4289   1.414       .  A
C4289      C4290   1.417       .  A
C4289      H4292   1.084       .  S
C4290      C4293   1.444       .  S
C4293      N4295   1.158       .  T
C4294      N4296   1.157       .  T
C4297      C4298   1.402       .  A
C4297      C4302   1.416       .  A
C4298      C4299   1.396       .  A
C4298      H4303   1.085       .  S
C4299      C4300   1.420       .  A
C4299      C4306   1.445       .  S
C4300      C4301   1.405       .  A
C4301      C4302   1.405       .  A
C4301      H4304   1.084       .  S
C4302      C4305   1.442       .  S
C4305      N4307   1.157       .  T
C4306      N4308   1.158       .  T
C4309      C4310   1.401       .  A
C4309      C4314   1.413       .  A
C4310      C4311   1.401       .  A
C4310      H4315   1.084       .  S
C4311      C4312   1.419       .  A
C4311      C4318   1.441       .  S
C4312      C4313   1.410       .  A
C4313      C4314   1.406       .  A
C4313      H4316   1.084       .  S
C4314      C4317   1.444       .  S
C4317      N4319   1.157       .  T
C4318      N4320   1.156       .  T
C4321      C4322   1.405       .  A
C4321      C4326   1.426       .  A
C4322      C4323   1.410       .  A
C4322      H4327   1.084       .  S
C4323      C4324   1.419       .  A
C4323      C4330   1.439       .  S
C4324      C4325   1.402       .  A
C4325      C4326   1.397       .  A
C4325      H4328   1.086       .  S
C4326      C4329   1.447       .  S
C4329      N4331   1.157       .  T
C4330      N4332   1.156       .  T
C4333      C4334   1.406       .  A
C4333      C4338   1.410       .  A
C4334      C4335   1.399       .  A
C4334      H4339   1.085       .  S
C4335      C4336   1.414       .  A
C4335      C4342   1.443       .  S
C4336      C4337   1.407       .  A
C4337      C4338   1.395       .  A
C4337      H4340   1.082       .  S
C4338      C4341   1.445       .  S
C4341      N4343   1.157       .  T
C4342      N4344   1.157       .  T
C4345      C4346   1.406       .  A
C4345      C4350   1.420       .  A
C4346      C4347   1.402       .  A
C4346      H4351   1.084       .  S
C4347      C4348   1.418       .  A
C4347      C4354   1.444       .  S
C4348      C4349   1.408       .  A
C4349      C4350   1.414       .  A
C4349      H4352   1.084       .  S
C4350      C4353   1.442       .  S
C4353      N4355   1.157       .  T
C4354      N4356   1.157       .  T
C4357      C4358   1.395       .  A
C4357      C4362   1.422       .  A
C4358      C4359   1.402       .  A
C4358      H4363   1.086       .  S
C4359      C4360   1.420       .  A
C4359      C4366   1.435       .  S
C4360      C4361   1.404       .  A
C4361      C4362   1.419       .  A
C4361      H4364   1.084       .  S
C4362      C4365   1.435       .  S
C4365      N4367   1.157       .  T
C4366      N4368   1.156       .  T
C4369      C4370   1.404       .  A
C4369      C4374   1.414       .  A
C4370      C4371   1.414       .  A
C4370      H4375   1.084       .  S
C4371      C4372   1.422       .  A
C4371      C4378   1.438       .  S
C4372      C4373   1.416       .  A
C4373      C4374   1.412       .  A
C4373      H4376   1.084       .  S
C4374      C4377   1.445       .  S
C4377      N4379   1.158       .  T
C4378      N4380   1.156       .  T
C4381      C4382   1.414       .  A
C4381      C4386   1.416       .  A
C4382      C4383   1.407       .  A
C4382      H4387   1.085       .  S
C4383      C4384   1.414       .  A
C4383      C4390   1.446       .  S
C4384      C4385   1.403       .  A
C4385      C4386   1.405       .  A
C4385      H4388   1.085       .  S
C4386      C4389   1.439       .  S
C4389      N4391   1.156       .  T
C4390      N4392   1.158       .  T
C4393      C4394   1.407       .  A
C4393      C4398   1.420       .  A
C4394      C4395   1.406       .  A
C4394      H4399   1.085       .  S
C4395      C4396   1.426       .  A
C4395      C4402   1.446       .  S
C4396      C4397   1.411       .  A
C4397      C4398   1.421       .  A
C4397      H4400   1.084       .  S
C4398      C4401   1.440       .  S
C4401      N4403   1.157       .  T
C4402      N4404   1.158       .  T
C4405      C4406   1.411       .  A
C4405      C4410   1.423       .  A
C4406      C4407   1.416       .  A
C4406      H4411   1.084       .  S
C4407      C4408   1.418       .  A
C4407      C4414   1.442       .  S
C4408      C4409   1.406       .  A
C4409      C4410   1.401       .  A
C4409      H4412   1.085       .  S
C4410      C4413   1.445       .  S
C4413      N4415   1.157       .  T
C4414      N4416   1.157       .  T
C4417      C4418   1.416       .  A
C4417      C4422   1.414       .  A
C4418      C4419   1.407       .  A
C4418      H4423   1.084       .  S
C4419      C4420   1.411       .  A
C4419      C4426   1.444       .  S
C4420      C4421   1.415       .  A
C4421      C4422   1.418       .  A
C4421      H4424   1.082       .  S
C4422      C4425   1.442       .  S
C4425      N4427   1.157       .  T
C4426      N4428   1.157       .  T
C4429      C4430   1.411       .  A
C4429      C4434   1.403       .  A
C4430      C4431   1.402       .  A
C4430      H4435   1.085       .  S
C4431      C4432   1.409       .  A
C4431      C4438   1.442       .  S
C4432      C4433   1.415       .  A
C4433      C4434   1.396       .  A
C4433      H4436   1.082       .  S
C4434      C4437   1.444       .  S
C4437      N4439   1.157       .  T
C4438      N4440   1.157       .  T
C4441      C4442   1.405       .  A
C4441      C4446   1.429       .  A
C4442      C4443   1.409       .  A
C4442      H4447   1.084       .  S
C4443      C4444   1.422       .  A
C4443      C4450   1.446       .  S
C4444      C4445   1.393       .  A
C4445      C4446   1.400       .  A
C4445      H4448   1.085       .  S
C4446      C4449   1.443       .  S
C4449      N4451   1.157       .  T
C4450      N4452   1.158       .  T
C4453      C4454   1.412       .  A
C4453      C4458   1.417       .  A
C4454      C4455   1.412       .  A
C4454      H4459   1.084       .  S
C4455      C4456   1.412       .  A
C4455      C4462   1.440       .  S
C4456      C4457   1.408       .  A
C4457      C4458   1.402       .  A
C4457      H4460   1.085       .  S
C4458      C4461   1.445       .  S
C4461      N4463   1.157       .  T
C4462      N4464   1.156       .  T
C4465      C4466   1.394       .  A
C4465      C4470   1.408       .  A
C4466      C4467   1.389       .  A
C4466      H4471   1.086       .  S
C4467      C4468   1.426       .  A
C4467      C4474   1.449       .  S
C4468      C4469   1.408       .  A
C4469      C4470   1.409       .  A
C4469      H4472   1.084       .  S
C4470      C4473   1.441       .  S
C4473      N4475   1.157       .  T
C4474      N4476   1.158       .  T
C4477      C4478   1.404       .  A
C4477      C4482   1.417       .  A
C4478      C4479   1.401       .  A
C4478      H4483   1.085       .  S
C4479      C4480   1.419       .  A
C4479      C4486   1.444       .  S
C4480      C4481   1.406       .  A
C4481      C4482   1.407       .  A
C4481      H4484   1.085       .  S
C4482      C4485   1.441       .  S
C4485      N4487   1.156       .  T
C4486      N4488   1.157       .  T
C4489      C4490   1.405       .  A
C4489      C4494   1.411       .  A
C4490      C4491   1.408       .  A
C4490      H4495   1.085       .  S
C4491      C4492   1.413       .  A
C4491      C4498   1.441       .  S
C4492      C4493   1.409       .  A
C4493      C4494   1.403       .  A
C4493      H4496   1.084       .  S
C4494      C4497   1.445       .  S
C4497      N4499   1.157       .  T
C4498      N4500   1.157       .  T
C4501      C4502   1.407       .  A
C4501      C4506   1.416       .  A
C4502      C4503   1.393       .  A
C4502      H4507   1.082       .  S
C4503      C4504   1.410       .  A
C4503      C4510   1.439       .  S
C4504      C4505   1.414       .  A
C4505      C4506   1.414       .  A
C4505      H4508   1.084       .  S
C4506      C4509   1.443       .  S
C4509      N4511   1.158       .  T
C4510      N4512   1.155       .  T
C4513      C4514   1.397       .  A
C4513      C4518   1.409       .  A
C4514      C4515   1.390       .  A
C4514      H4519   1.084       .  S
C4515      C4516   1.408       .  A
C4515      C4522   1.443       .  S
C4516      C4517   1.406       .  A
C4517      C4518   1.407       .  A
C4517      H4520   1.084       .  S
C4518      C4521   1.443       .  S
C4521      N4523   1.157   1_545  T
C4522      N4524   1.156       .  T
C4525      C4526   1.405       .  A
C4525      C4530   1.416       .  A
C4526      C4527   1.405       .  A
C4526      H4531   1.081       .  S
C4527      C4528   1.411       .  A
C4527      C4534   1.440       .  S
C4528      C4529   1.406       .  A
C4529      C4530   1.406       .  A
C4529      H4532   1.085       .  S
C4530      C4533   1.443       .  S
C4533      N4535   1.157       .  T
C4534      N4536   1.156       .  T
C4537      C4538   1.398       .  A
C4537      C4542   1.430       .  A
C4538      C4539   1.397       .  A
C4538      H4543   1.085       .  S
C4539      C4540   1.417       .  A
C4539      C4546   1.445       .  S
C4540      C4541   1.389       .  A
C4541      C4542   1.384       .  A
C4541      H4544   1.086       .  S
C4542      C4545   1.449       .  S
C4545      N4547   1.158       .  T
C4546      N4548   1.157       .  T
C4549      C4550   1.399       .  A
C4549      C4554   1.403       .  A
C4550      C4551   1.387       .  A
C4550      H4555   1.084       .  S
C4551      C4552   1.413       .  A
C4551      C4558   1.446       .  S
C4552      C4553   1.407       .  A
C4553      C4554   1.397       .  A
C4553      H4556   1.084       .  S
C4554      C4557   1.443       .  S
C4557      N4559   1.157       .  T
C4558      N4560   1.157       .  T
C4561      C4562   1.391       .  A
C4561      C4566   1.423       .  A
C4562      C4563   1.397       .  A
C4562      H4567   1.086       .  S
C4563      C4564   1.425       .  A
C4563      C4570   1.440       .  S
C4564      C4565   1.404       .  A
C4565      C4566   1.409       .  A
C4565      H4568   1.085       .  S
C4566      C4569   1.446       .  S
C4569      N4571   1.158       .  T
C4570      N4572   1.156       .  T
C4573      C4574   1.403       .  A
C4573      C4578   1.412       .  A
C4574      C4575   1.389       .  A
C4574      H4579   1.085       .  S
C4575      C4576   1.408       .  A
C4575      C4582   1.437       .  S
C4576      C4577   1.409       .  A
C4577      C4578   1.411       .  A
C4577      H4580   1.083       .  S
C4578      C4581   1.442       .  S
C4581      N4583   1.157       .  T
C4582      N4584   1.154       .  T
C4585      C4586   1.409       .  A
C4585      C4590   1.413       .  A
C4586      C4587   1.396       .  A
C4586      H4591   1.085       .  S
C4587      C4588   1.415       .  A
C4587      C4594   1.443       .  S
C4588      C4589   1.416       .  A
C4589      C4590   1.417       .  A
C4589      H4592   1.084       .  S
C4590      C4593   1.442       .  S
C4593      N4595   1.157       .  T
C4594      N4596   1.157       .  T
C4597      C4598   1.398       .  A
C4597      C4602   1.401       .  A
C4598      C4599   1.396       .  A
C4598      H4603   1.084       .  S
C4599      C4600   1.409       .  A
C4599      C4606   1.440       .  S
C4600      C4601   1.406       .  A
C4601      C4602   1.381       .  A
C4601      H4604   1.085       .  S
C4602      C4605   1.446       .  S
C4605      N4607   1.157       .  T
C4606      N4608   1.156       .  T
C4609      C4610   1.402       .  A
C4609      C4614   1.414       .  A
C4610      C4611   1.403       .  A
C4610      H4615   1.085       .  S
C4611      C4612   1.421       .  A
C4611      C4618   1.444       .  S
C4612      C4613   1.407       .  A
C4613      C4614   1.406       .  A
C4613      H4616   1.082       .  S
C4614      C4617   1.444       .  S
C4617      N4619   1.157       .  T
C4618      N4620   1.157       .  T
