geometry optimzed in LAMMPS
_audit_creation_date              2020-11-30 
_audit_creation_method            'lammps2cif' 
_symmetry_space_group_name_H-M    'P1' 
_symmetry_Int_Tables_number       1 
_symmetry_cell_setting            triclinic 
loop_ 
_symmetry_equiv_pos_as_xyz 
  x,y,z 
_cell_length_a                    26.964100520931876 
_cell_length_b                    26.653856469625012 
_cell_length_c                    24.784772738682054 
_cell_angle_alpha                 88.70009997669878 
_cell_angle_beta                  90.27799070262621 
_cell_angle_gamma                 90.34326932844506 
loop_ 
_atom_site_label 
_atom_site_type_symbol 
_atom_site_fract_x 
_atom_site_fract_y 
_atom_site_fract_z 
_atom_site_charge 
In1        In  0.99509360  0.33238638  0.12608251     1.36870
C2          C  0.05336184  0.27107697  0.19853527     0.77240
O3          O  0.07248124  0.35358462  0.07759584    -0.61200
O4          O  0.01205274  0.06618774  0.07447887    -0.52110
C5          C  0.27039292  0.27664266  0.05038784     0.69910
O6          O  0.28221115  0.26076523  0.09711028    -0.46970
C7          C  0.27098238  0.05880964  0.19789257     0.74610
O8          O  0.01014290  0.28672093  0.20540890    -0.58830
O9          O  0.31337634  0.07215169  0.18203127    -0.48920
O10         O  0.06669484  0.94987013  0.15110974    -0.55260
C11         C  0.05453756  0.05856963  0.05424193     0.84790
O12         O  0.28421298  0.98811113  0.04555043    -0.57150
O13         O  0.25837071  0.35388494  0.17117046    -0.60450
C14         C  0.07305801  0.08948799  0.00034739    -0.02820
C15         C  0.25841278  0.24234888  0.49996301    -0.02820
In16       In  0.00304628  0.33278112  0.37422775     1.36870
C17         C  0.06049008  0.27302233  0.30241741     0.77240
O18         O  0.98608701  0.26564866  0.42583407    -0.61200
O19         O  0.25899082  0.31158358  0.42271245    -0.52110
C20         C  0.06107846  0.05519407  0.44992266     0.69910
O21         O  0.04726103  0.01039138  0.45475957    -0.46970
C22         C  0.27810943  0.06075412  0.30177454     0.74610
O23         O  0.07310167  0.31128198  0.32913706    -0.58830
O24         O  0.26477628  0.04862674  0.34919976    -0.48920
O25         O  0.35143049  0.25967996  0.31828163    -0.55260
C26         C  0.27693457  0.27326643  0.44606865     0.84790
O27         O  0.38259209  0.07107125  0.40320054    -0.57150
O28         O  0.98799614  0.04511291  0.29490147    -0.60450
C29         C  0.08919465  0.25663700  0.24788854    -0.02820
C30         C  0.24227664  0.07519295  0.25242106    -0.02820
C31         C  0.17123183  0.20472321  0.21250847    -0.02180
C32         C  0.12411969  0.20486085  0.24166788     0.07500
C33         C  0.11941897  0.16185716  0.27607530    -0.02300
C34         C  0.16023809  0.12710499  0.28780045    -0.02300
C35         C  0.20735040  0.12696802  0.25864143     0.07630
C36         C  0.21205116  0.16997171  0.22423434    -0.02500
Br37       Br  0.27812283  0.18389297  0.19939340    -0.01040
Br38       Br  0.17953585  0.24914239  0.15095545    -0.01120
Br39       Br  0.15193362  0.08268367  0.34935184    -0.01080
Br40       Br  0.05334796  0.14793741  0.30091894    -0.01060
C41         C  0.12497563  0.00830670  0.21885279    -0.02180
C42         C  0.12835713  0.29696973  0.24925759     0.07500
C43         C  0.16675026  0.29308609  0.28726376    -0.02300
C44         C  0.20649703  0.32352207  0.28145572    -0.02300
C45         C  0.20311536  0.03485899  0.25105079     0.07630
C46         C  0.16472267  0.03874197  0.21304395    -0.02500
Br47       Br  0.16038186  0.08852944  0.15694463    -0.01040
Br48       Br  0.06997139  0.04870609  0.22720103    -0.01120
Br49       Br  0.26150278  0.28312431  0.27311089    -0.01080
Br50       Br  0.17109036  0.24329820  0.34336266    -0.01040
C51         C  0.16310744  0.21491857  0.47775690    -0.02180
C52         C  0.20776785  0.20510948  0.50540490     0.07500
C53         C  0.20670022  0.15492116  0.03107718    -0.02300
C54         C  0.16836269  0.11691934  0.02255186    -0.02300
C55         C  0.12368375  0.12667882  0.49490571     0.07630
C56         C  0.12476943  0.17691671  0.46923259    -0.02500
Br57       Br  0.07686412  0.19575114  0.41610421    -0.01040
Br58       Br  0.15150316  0.28451822  0.46015048    -0.01120
Br59       Br  0.17996826  0.04731914  0.04015268    -0.01080
Br60       Br  0.25460473  0.13608581  0.08420600    -0.01060
C61         C  0.32414866  0.12581541  0.46787933    -0.02180
C62         C  0.03277339  0.12766161  0.50158478     0.07500
C63         C  0.03481944  0.16471952  0.04097405    -0.02300
C64         C  0.00732189  0.20602059  0.03243287    -0.02300
C65         C  0.29867724  0.20412660  0.49872024     0.07630
C66         C  0.29665067  0.16711613  0.45933836    -0.02500
Br67       Br  0.25547674  0.16780578  0.39554107    -0.01040
Br68       Br  0.28201732  0.06990142  0.47025793    -0.01120
Br69       Br  0.04945527  0.26193326  0.03005207    -0.01080
Br70       Br  0.07599295  0.16402860  0.10477200    -0.01060
In71       In  0.99507486  0.33234810  0.62608043     1.36870
C72         C  0.05335654  0.27106512  0.69854177     0.77240
O73         O  0.07246210  0.35353964  0.57759451    -0.61200
O74         O  0.01203057  0.06613983  0.57446980    -0.52110
C75         C  0.27037470  0.27659523  0.55038626     0.69910
O76         O  0.28219833  0.26071943  0.59710792    -0.46970
C77         C  0.27097582  0.05878995  0.69788812     0.74610
O78         O  0.01013345  0.28669801  0.70541423    -0.58830
O79         O  0.31336088  0.07213636  0.68200334    -0.48920
O80         O  0.06668583  0.94985263  0.65111360    -0.55260
C81         C  0.05451695  0.05852218  0.55423727     0.84790
O82         O  0.28418856  0.98806555  0.54555032    -0.57150
O83         O  0.25836616  0.35384960  0.67118924    -0.60450
C84         C  0.07303883  0.08943992  0.50034473    -0.02820
C85         C  0.25843199  0.24239695  0.99996606    -0.02820
In86       In  0.00306458  0.33281872  0.87423013     1.36870
C87         C  0.06049571  0.27304068  0.80242238     0.77240
O88         O  0.98610924  0.26569669  0.92584392    -0.61200
O89         O  0.25900963  0.31162823  0.92271405    -0.52110
C90         C  0.06109646  0.05524130  0.94992402     0.69910
O91         O  0.04728539  0.01043673  0.95475973    -0.46970
C92         C  0.27811361  0.06076444  0.80176848     0.74610
O93         O  0.07310540  0.31131618  0.82911834    -0.58830
O94         O  0.26478432  0.04864265  0.84919634    -0.48920
O95         O  0.35144516  0.25969398  0.81831056    -0.55260
C96         C  0.27695510  0.27331381  0.94607379     0.84790
O97         O  0.38260435  0.07111663  0.90320271    -0.57150
O98         O  0.98800463  0.04513485  0.79489656    -0.60450
C99         C  0.08919311  0.25663657  0.74789394    -0.02820
C100        C  0.24227701  0.07519161  0.75241619    -0.02820
C101        C  0.17122436  0.20471966  0.71250520    -0.02180
C102        C  0.12411693  0.20485871  0.74167327     0.07500
C103        C  0.11942236  0.16185611  0.77608351    -0.02300
C104        C  0.16024432  0.12710652  0.78780449    -0.02300
C105        C  0.20735186  0.12696819  0.75863674     0.07630
C106        C  0.21204651  0.16997081  0.72422703    -0.02500
Br107      Br  0.27811276  0.18389557  0.69937569    -0.01040
Br108      Br  0.17951501  0.24913020  0.65094316    -0.01120
Br109      Br  0.15195373  0.08269387  0.84936505    -0.01080
Br110      Br  0.05335698  0.14793307  0.80093839    -0.01060
C111        C  0.12497468  0.00830496  0.71884997    -0.02180
C112        C  0.12835826  0.29696649  0.74925230     0.07500
C113        C  0.16675220  0.29308239  0.78725856    -0.02300
C114        C  0.20649700  0.32352190  0.78145902    -0.02300
C115        C  0.20311326  0.03486028  0.75105644     0.07630
C116        C  0.16471978  0.03874367  0.71304948    -0.02500
Br117      Br  0.16038370  0.08852620  0.65694543    -0.01040
Br118      Br  0.06996087  0.04870166  0.72716858    -0.01120
Br119      Br  0.26151254  0.28312704  0.77314460    -0.01080
Br120      Br  0.17108735  0.24329957  0.84336233    -0.01040
C121        C  0.16312639  0.21496866  0.97775413    -0.02180
C122        C  0.20778622  0.20515914  0.00540435     0.07500
C123        C  0.20668266  0.15487127  0.53107809    -0.02300
C124        C  0.16834374  0.11686934  0.52255486    -0.02300
C125        C  0.12370210  0.12672851  0.99490496     0.07630
C126        C  0.12478695  0.17696676  0.96923179    -0.02500
Br127      Br  0.07687669  0.19580003  0.91610763    -0.01040
Br128      Br  0.15152673  0.28456823  0.96013716    -0.01120
Br129      Br  0.17994482  0.04726925  0.54016615    -0.01080
Br130      Br  0.25459183  0.13603744  0.58420313    -0.01060
C131        C  0.32416954  0.12586476  0.96788567    -0.02180
C132        C  0.03279319  0.12770960  0.00159147     0.07500
C133        C  0.03479769  0.16467064  0.54096774    -0.02300
C134        C  0.00730105  0.20597138  0.53242627    -0.02300
C135        C  0.29869703  0.20417457  0.99872716     0.07630
C136        C  0.29667249  0.16716517  0.95934465    -0.02500
Br137      Br  0.25551145  0.16785976  0.89553821    -0.01040
Br138      Br  0.28204009  0.06995020  0.97025511    -0.01120
Br139      Br  0.04943233  0.26188469  0.53005429    -0.01080
Br140      Br  0.07595901  0.16397521  0.60477434    -0.01060
In141      In  0.99509360  0.66571972  0.12608251     1.36870
C142        C  0.05336183  0.60441033  0.19853529     0.77240
O143        O  0.07248125  0.68691797  0.07759585    -0.61200
O144        O  0.01205278  0.39952112  0.07447893    -0.52110
C145        C  0.27039293  0.60997600  0.05038785     0.69910
O146        O  0.28221117  0.59409857  0.09711029    -0.46970
C147        C  0.27098238  0.39214299  0.19789257     0.74610
O148        O  0.01014290  0.62005430  0.20540893    -0.58830
O149        O  0.31337635  0.40548502  0.18203131    -0.48920
O150        O  0.06669486  0.28320349  0.15110973    -0.55260
C151        C  0.05453757  0.39190299  0.05424196     0.84790
O152        O  0.28421298  0.32144447  0.04555044    -0.57150
O153        O  0.25837073  0.68721828  0.17117046    -0.60450
C154        C  0.07305802  0.42282134  0.00034741    -0.02820
C155        C  0.25841279  0.57568221  0.49996301    -0.02820
In156      In  0.00304630  0.66611447  0.37422778     1.36870
C157        C  0.06049010  0.60635570  0.30241743     0.77240
O158        O  0.98608705  0.59898203  0.42583411    -0.61200
O159        O  0.25899083  0.64491692  0.42271245    -0.52110
C160        C  0.06107845  0.38852739  0.44992262     0.69910
O161        O  0.04726102  0.34372471  0.45475953    -0.46970
C162        C  0.27810942  0.39408746  0.30177454     0.74610
O163        O  0.07310167  0.64461537  0.32913705    -0.58830
O164        O  0.26477627  0.38196006  0.34919976    -0.48920
O165        O  0.35143050  0.59301331  0.31828164    -0.55260
C166        C  0.27693457  0.60659977  0.44606864     0.84790
O167        O  0.38259209  0.40440457  0.40320051    -0.57150
O168        O  0.98799613  0.37844627  0.29490146    -0.60450
C169        C  0.08919466  0.58997036  0.24788856    -0.02820
C170        C  0.24227663  0.40852630  0.25242106    -0.02820
C171        C  0.17123184  0.53805658  0.21250849    -0.02180
C172        C  0.12411970  0.53819422  0.24166790     0.07500
C173        C  0.11941898  0.49519052  0.27607532    -0.02300
C174        C  0.16023809  0.46043834  0.28780046    -0.02300
C175        C  0.20735040  0.46030137  0.25864144     0.07630
C176        C  0.21205117  0.50330507  0.22423437    -0.02500
Br177      Br  0.27812284  0.51722632  0.19939344    -0.01040
Br178      Br  0.17953587  0.58247575  0.15095548    -0.01120
Br179      Br  0.15193362  0.41601702  0.34935184    -0.01080
Br180      Br  0.05334796  0.48127077  0.30091894    -0.01060
C181        C  0.12497562  0.34164003  0.21885280    -0.02180
C182        C  0.12835714  0.63030310  0.24925760     0.07500
C183        C  0.16675027  0.62641945  0.28726377    -0.02300
C184        C  0.20649704  0.65685543  0.28145572    -0.02300
C185        C  0.20311535  0.36819233  0.25105079     0.07630
C186        C  0.16472265  0.37207531  0.21304395    -0.02500
Br187      Br  0.16038181  0.42186282  0.15694467    -0.01040
Br188      Br  0.06997139  0.38203940  0.22720110    -0.01120
Br189      Br  0.26150278  0.61645766  0.27311092    -0.01080
Br190      Br  0.17109035  0.57663158  0.34336268    -0.01040
C191        C  0.16310744  0.54825190  0.47775690    -0.02180
C192        C  0.20776786  0.53844279  0.50540488     0.07500
C193        C  0.20670022  0.48825452  0.03107721    -0.02300
C194        C  0.16836269  0.45025269  0.02255189    -0.02300
C195        C  0.12368375  0.46001214  0.49490568     0.07630
C196        C  0.12476943  0.51025004  0.46923258    -0.02500
Br197      Br  0.07686412  0.52908449  0.41610422    -0.01040
Br198      Br  0.15150316  0.61785156  0.46015053    -0.01120
Br199      Br  0.17996827  0.38065250  0.04015274    -0.01080
Br200      Br  0.25460472  0.46941918  0.08420603    -0.01060
C201        C  0.32414867  0.45914875  0.46787930    -0.02180
C202        C  0.03277339  0.46099493  0.50158476     0.07500
C203        C  0.03481945  0.49805288  0.04097405    -0.02300
C204        C  0.00732189  0.53935394  0.03243287    -0.02300
C205        C  0.29867725  0.53745993  0.49872022     0.07630
C206        C  0.29665068  0.50044947  0.45933833    -0.02500
Br207      Br  0.25547676  0.50113914  0.39554103    -0.01040
Br208      Br  0.28201732  0.40323476  0.47025788    -0.01120
Br209      Br  0.04945526  0.59526662  0.03005205    -0.01080
Br210      Br  0.07599297  0.49736199  0.10477199    -0.01060
In211      In  0.99507486  0.66568142  0.62608045     1.36870
C212        C  0.05335654  0.60439843  0.69854178     0.77240
O213        O  0.07246209  0.68687296  0.57759451    -0.61200
O214        O  0.01203054  0.39947311  0.57446973    -0.52110
C215        C  0.27037470  0.60992855  0.55038625     0.69910
O216        O  0.28219832  0.59405275  0.59710791    -0.46970
C217        C  0.27097583  0.39212327  0.69788811     0.74610
O218        O  0.01013346  0.62003133  0.70541424    -0.58830
O219        O  0.31336088  0.40546970  0.68200330    -0.48920
O220        O  0.06668581  0.28318594  0.65111359    -0.55260
C221        C  0.05451694  0.39185549  0.55423724     0.84790
O222        O  0.28418855  0.32139888  0.54555030    -0.57150
O223        O  0.25836615  0.68718292  0.67118923    -0.60450
C224        C  0.07303883  0.42277324  0.50034470    -0.02820
C225        C  0.25843199  0.57573029  0.99996607    -0.02820
In226      In  0.00306458  0.66615203  0.87423012     1.36870
C227        C  0.06049570  0.60637398  0.80242238     0.77240
O228        O  0.98610923  0.59903000  0.92584392    -0.61200
O229        O  0.25900964  0.64496156  0.92271405    -0.52110
C230        C  0.06109647  0.38857465  0.94992404     0.69910
O231        O  0.04728541  0.34377007  0.95475975    -0.46970
C232        C  0.27811361  0.39409777  0.80176847     0.74610
O233        O  0.07310540  0.64464947  0.82911835    -0.58830
O234        O  0.26478433  0.38197600  0.84919634    -0.48920
O235        O  0.35144516  0.59302730  0.81831055    -0.55260
C236        C  0.27695511  0.60664714  0.94607380     0.84790
O237        O  0.38260434  0.40444997  0.90320272    -0.57150
O238        O  0.98800464  0.37846816  0.79489655    -0.60450
C239        C  0.08919310  0.58996988  0.74789394    -0.02820
C240        C  0.24227702  0.40852493  0.75241618    -0.02820
C241        C  0.17122435  0.53805297  0.71250518    -0.02180
C242        C  0.12411692  0.53819202  0.74167325     0.07500
C243        C  0.11942236  0.49518942  0.77608350    -0.02300
C244        C  0.16024432  0.46043983  0.78780448    -0.02300
C245        C  0.20735186  0.46030151  0.75863672     0.07630
C246        C  0.21204650  0.50330412  0.72422700    -0.02500
Br247      Br  0.27811274  0.51722888  0.69937564    -0.01040
Br248      Br  0.17951499  0.58246351  0.65094314    -0.01120
Br249      Br  0.15195374  0.41602718  0.84936504    -0.01080
Br250      Br  0.05335699  0.48126638  0.80093839    -0.01060
C251        C  0.12497468  0.34163830  0.71884995    -0.02180
C252        C  0.12835826  0.63029979  0.74925230     0.07500
C253        C  0.16675220  0.62641570  0.78725856    -0.02300
C254        C  0.20649700  0.65685521  0.78145902    -0.02300
C255        C  0.20311327  0.36819360  0.75105642     0.07630
C256        C  0.16471979  0.37207699  0.71304945    -0.02500
Br257      Br  0.16038375  0.42185950  0.65694538    -0.01040
Br258      Br  0.06996086  0.38203501  0.72716849    -0.01120
Br259      Br  0.26151254  0.61646035  0.77314459    -0.01080
Br260      Br  0.17108737  0.57663286  0.84336231    -0.01040
C261        C  0.16312640  0.54830200  0.97775413    -0.02180
C262        C  0.20778622  0.53849249  0.00540436     0.07500
C263        C  0.20668267  0.48820458  0.53107806    -0.02300
C264        C  0.16834374  0.45020265  0.52255482    -0.02300
C265        C  0.12370211  0.46006185  0.99490498     0.07630
C266        C  0.12478696  0.51030009  0.96923179    -0.02500
Br267      Br  0.07687670  0.52913335  0.91610763    -0.01040
Br268      Br  0.15152674  0.61790156  0.96013713    -0.01120
Br269      Br  0.17994482  0.38060255  0.54016608    -0.01080
Br270      Br  0.25459184  0.46937073  0.58420309    -0.01060
C271        C  0.32416953  0.45919809  0.96788569    -0.02180
C272        C  0.03279319  0.46104295  0.00159149     0.07500
C273        C  0.03479769  0.49800395  0.54096773    -0.02300
C274        C  0.00730105  0.53930470  0.53242627    -0.02300
C275        C  0.29869703  0.53750790  0.99872718     0.07630
C276        C  0.29667248  0.50049850  0.95934468    -0.02500
Br277      Br  0.25551144  0.50119308  0.89553824    -0.01040
Br278      Br  0.28204009  0.40328353  0.97025514    -0.01120
Br279      Br  0.04943234  0.59521800  0.53005433    -0.01080
Br280      Br  0.07595900  0.49730848  0.60477434    -0.01060
In281      In  0.99509359  0.99905303  0.12608250     1.36870
C282        C  0.05336182  0.93774364  0.19853529     0.77240
O283        O  0.07248124  0.02025130  0.07759585    -0.61200
O284        O  0.01205277  0.73285444  0.07447890    -0.52110
C285        C  0.27039292  0.94330932  0.05038782     0.69910
O286        O  0.28221116  0.92743188  0.09711026    -0.46970
C287        C  0.27098239  0.72547634  0.19789257     0.74610
O288        O  0.01014288  0.95338761  0.20540892    -0.58830
O289        O  0.31337637  0.73881837  0.18203131    -0.48920
O290        O  0.06669485  0.61653682  0.15110974    -0.55260
C291        C  0.05453757  0.72523631  0.05424195     0.84790
O292        O  0.28421300  0.65477781  0.04555044    -0.57150
O293        O  0.25837073  0.02055156  0.17117048    -0.60450
C294        C  0.07305803  0.75615466  0.00034740    -0.02820
C295        C  0.25841279  0.90901555  0.49996303    -0.02820
In296      In  0.00304628  0.99944780  0.37422778     1.36870
C297        C  0.06049008  0.93968902  0.30241742     0.77240
O298        O  0.98608704  0.93231536  0.42583413    -0.61200
O299        O  0.25899082  0.97825025  0.42271246    -0.52110
C300        C  0.06107846  0.72186074  0.44992267     0.69910
O301        O  0.04726104  0.67705806  0.45475957    -0.46970
C302        C  0.27810943  0.72742081  0.30177454     0.74610
O303        O  0.07310164  0.97794870  0.32913704    -0.58830
O304        O  0.26477628  0.71529341  0.34919976    -0.48920
O305        O  0.35143051  0.92634662  0.31828167    -0.55260
C306        C  0.27693458  0.93993311  0.44606867     0.84790
O307        O  0.38259209  0.73773791  0.40320053    -0.57150
O308        O  0.98799615  0.71177961  0.29490148    -0.60450
C309        C  0.08919464  0.92330368  0.24788856    -0.02820
C310        C  0.24227664  0.74185965  0.25242107    -0.02820
C311        C  0.17123183  0.87138991  0.21250849    -0.02180
C312        C  0.12411969  0.87152754  0.24166790     0.07500
C313        C  0.11941898  0.82852385  0.27607534    -0.02300
C314        C  0.16023810  0.79377168  0.28780048    -0.02300
C315        C  0.20735041  0.79363471  0.25864144     0.07630
C316        C  0.21205117  0.83663841  0.22423436    -0.02500
Br317      Br  0.27812283  0.85055967  0.19939341    -0.01040
Br318      Br  0.17953585  0.91580908  0.15095547    -0.01120
Br319      Br  0.15193365  0.74935036  0.34935186    -0.01080
Br320      Br  0.05334798  0.81460410  0.30091899    -0.01060
C321        C  0.12497563  0.67497339  0.21885279    -0.02180
C322        C  0.12835712  0.96363641  0.24925760     0.07500
C323        C  0.16675025  0.95975277  0.28726378    -0.02300
C324        C  0.20649703  0.99018874  0.28145574    -0.02300
C325        C  0.20311537  0.70152568  0.25105079     0.07630
C326        C  0.16472267  0.70540867  0.21304395    -0.02500
Br327      Br  0.16038184  0.75519616  0.15694465    -0.01040
Br328      Br  0.06997140  0.71537278  0.22720107    -0.01120
Br329      Br  0.26150277  0.94979096  0.27311097    -0.01080
Br330      Br  0.17109031  0.90996491  0.34336272    -0.01040
C331        C  0.16310743  0.88158525  0.47775694    -0.02180
C332        C  0.20776785  0.87177614  0.50540492     0.07500
C333        C  0.20670022  0.82158784  0.03107718    -0.02300
C334        C  0.16836270  0.78358601  0.02255187    -0.02300
C335        C  0.12368374  0.79334550  0.49490573     0.07630
C336        C  0.12476943  0.84358340  0.46923263    -0.02500
Br337      Br  0.07686410  0.86241784  0.41610427    -0.01040
Br338      Br  0.15150316  0.95118491  0.46015056    -0.01120
Br339      Br  0.17996827  0.71398582  0.04015273    -0.01080
Br340      Br  0.25460474  0.80275250  0.08420600    -0.01060
C341        C  0.32414866  0.79248209  0.46787932    -0.02180
C342        C  0.03277339  0.79432828  0.50158481     0.07500
C343        C  0.03481946  0.83138620  0.04097403    -0.02300
C344        C  0.00732190  0.87268727  0.03243284    -0.02300
C345        C  0.29867724  0.87079327  0.49872025     0.07630
C346        C  0.29665067  0.83378281  0.45933836    -0.02500
Br347      Br  0.25547674  0.83447248  0.39554107    -0.01040
Br348      Br  0.28201731  0.73656809  0.47025790    -0.01120
Br349      Br  0.04945527  0.92859995  0.03005203    -0.01080
Br350      Br  0.07599298  0.83069532  0.10477196    -0.01060
In351      In  0.99507487  0.99901478  0.62608046     1.36870
C352        C  0.05335655  0.93773178  0.69854177     0.77240
O353        O  0.07246209  0.02020630  0.57759450    -0.61200
O354        O  0.01203056  0.73280647  0.57446980    -0.52110
C355        C  0.27037471  0.94326189  0.55038628     0.69910
O356        O  0.28219833  0.92738610  0.59710794    -0.46970
C357        C  0.27097582  0.72545658  0.69788811     0.74610
O358        O  0.01013347  0.95336466  0.70541422    -0.58830
O359        O  0.31336087  0.73880301  0.68200331    -0.48920
O360        O  0.06668581  0.61651925  0.65111360    -0.55260
C361        C  0.05451695  0.72518884  0.55423728     0.84790
O362        O  0.28418856  0.65473220  0.54555029    -0.57150
O363        O  0.25836614  0.02051630  0.67118923    -0.60450
C364        C  0.07303883  0.75610659  0.50034474    -0.02820
C365        C  0.25843199  0.90906361  0.99996604    -0.02820
In366      In  0.00306458  0.99948537  0.87423011     1.36870
C367        C  0.06049571  0.93970731  0.80242238     0.77240
O368        O  0.98610923  0.93236332  0.92584388    -0.61200
O369        O  0.25900964  0.97829490  0.92271405    -0.52110
C370        C  0.06109647  0.72190796  0.94992403     0.69910
O371        O  0.04728540  0.67710339  0.95475974    -0.46970
C372        C  0.27811361  0.72743109  0.80176848     0.74610
O373        O  0.07310542  0.97798278  0.82911837    -0.58830
O374        O  0.26478433  0.71530930  0.84919634    -0.48920
O375        O  0.35144516  0.92636065  0.81831054    -0.55260
C376        C  0.27695511  0.93998047  0.94607377     0.84790
O377        O  0.38260435  0.73778329  0.90320271    -0.57150
O378        O  0.98800463  0.71180149  0.79489656    -0.60450
C379        C  0.08919312  0.92330322  0.74789394    -0.02820
C380        C  0.24227701  0.74185825  0.75241618    -0.02820
C381        C  0.17122437  0.87138630  0.71250519    -0.02180
C382        C  0.12411693  0.87152536  0.74167325     0.07500
C383        C  0.11942236  0.82852275  0.77608349    -0.02300
C384        C  0.16024431  0.79377316  0.78780447    -0.02300
C385        C  0.20735185  0.79363483  0.75863672     0.07630
C386        C  0.21204651  0.83663745  0.72422701    -0.02500
Br387      Br  0.27811276  0.85056221  0.69937568    -0.01040
Br388      Br  0.17951502  0.91579685  0.65094315    -0.01120
Br389      Br  0.15195372  0.74936050  0.84936503    -0.01080
Br390      Br  0.05335698  0.81459971  0.80093836    -0.01060
C391        C  0.12497468  0.67497161  0.71884995    -0.02180
C392        C  0.12835828  0.96363314  0.74925230     0.07500
C393        C  0.16675221  0.95974904  0.78725856    -0.02300
C394        C  0.20649700  0.99018857  0.78145902    -0.02300
C395        C  0.20311326  0.70152692  0.75105643     0.07630
C396        C  0.16471978  0.70541031  0.71304946    -0.02500
Br397      Br  0.16038373  0.75519283  0.65694540    -0.01040
Br398      Br  0.06996086  0.71536832  0.72716852    -0.01120
Br399      Br  0.26151254  0.94979372  0.77314456    -0.01080
Br400      Br  0.17108740  0.90996619  0.84336229    -0.01040
C401        C  0.16312641  0.88163532  0.97775410    -0.02180
C402        C  0.20778623  0.87182580  0.00540433     0.07500
C403        C  0.20668267  0.82153793  0.53107809    -0.02300
C404        C  0.16834374  0.78353600  0.52255486    -0.02300
C405        C  0.12370212  0.79339517  0.99490496     0.07630
C406        C  0.12478697  0.84363341  0.96923177    -0.02500
Br407      Br  0.07687671  0.86246666  0.91610760    -0.01040
Br408      Br  0.15152674  0.95123487  0.96013710    -0.01120
Br409      Br  0.17994482  0.71393590  0.54016611    -0.01080
Br410      Br  0.25459184  0.80270408  0.58420312    -0.01060
C411        C  0.32416954  0.79253142  0.96788567    -0.02180
C412        C  0.03279320  0.79437627  0.00159146     0.07500
C413        C  0.03479768  0.83133730  0.54096778    -0.02300
C414        C  0.00730104  0.87263804  0.53242631    -0.02300
C415        C  0.29869704  0.87084123  0.99872715     0.07630
C416        C  0.29667250  0.83383182  0.95934465    -0.02500
Br417      Br  0.25551146  0.83452640  0.89553821    -0.01040
Br418      Br  0.28204010  0.73661686  0.97025513    -0.01120
Br419      Br  0.04943233  0.92855134  0.53005435    -0.01080
Br420      Br  0.07595899  0.83064184  0.60477439    -0.01060
In421      In  0.32842693  0.33238638  0.12608251     1.36870
C422        C  0.38669517  0.27107697  0.19853527     0.77240
O423        O  0.40581457  0.35358463  0.07759584    -0.61200
O424        O  0.34538608  0.06618774  0.07447887    -0.52110
C425        C  0.60372625  0.27664265  0.05038784     0.69910
O426        O  0.61554449  0.26076522  0.09711027    -0.46970
C427        C  0.60431572  0.05880964  0.19789256     0.74610
O428        O  0.34347623  0.28672092  0.20540890    -0.58830
O429        O  0.64670968  0.07215168  0.18203127    -0.48920
O430        O  0.40002818  0.94987013  0.15110974    -0.55260
C431        C  0.38787090  0.05856963  0.05424193     0.84790
O432        O  0.61754632  0.98811113  0.04555042    -0.57150
O433        O  0.59170405  0.35388491  0.17117048    -0.60450
C434        C  0.40639135  0.08948799  0.00034739    -0.02820
C435        C  0.59174612  0.24234888  0.49996301    -0.02820
In436      In  0.33637961  0.33278111  0.37422775     1.36870
C437        C  0.39382341  0.27302233  0.30241741     0.77240
O438        O  0.31942035  0.26564867  0.42583409    -0.61200
O439        O  0.59232417  0.31158358  0.42271245    -0.52110
C440        C  0.39441179  0.05519407  0.44992265     0.69910
O441        O  0.38059437  0.01039138  0.45475956    -0.46970
C442        C  0.61144276  0.06075412  0.30177453     0.74610
O443        O  0.40643500  0.31128198  0.32913706    -0.58830
O444        O  0.59810962  0.04862674  0.34919975    -0.48920
O445        O  0.68476384  0.25967996  0.31828165    -0.55260
C446        C  0.61026791  0.27326643  0.44606864     0.84790
O447        O  0.71592542  0.07107124  0.40320052    -0.57150
O448        O  0.32132948  0.04511291  0.29490147    -0.60450
C449        C  0.42252798  0.25663699  0.24788854    -0.02820
C450        C  0.57560997  0.07519295  0.25242105    -0.02820
C451        C  0.50456516  0.20472322  0.21250847    -0.02180
C452        C  0.45745303  0.20486085  0.24166788     0.07500
C453        C  0.45275231  0.16185716  0.27607530    -0.02300
C454        C  0.49357143  0.12710499  0.28780045    -0.02300
C455        C  0.54068373  0.12696802  0.25864142     0.07630
C456        C  0.54538450  0.16997171  0.22423434    -0.02500
Br457      Br  0.61145616  0.18389297  0.19939340    -0.01040
Br458      Br  0.51286919  0.24914239  0.15095546    -0.01120
Br459      Br  0.48526696  0.08268367  0.34935184    -0.01080
Br460      Br  0.38668130  0.14793741  0.30091895    -0.01060
C461        C  0.45830896  0.00830670  0.21885279    -0.02180
C462        C  0.46169047  0.29696972  0.24925760     0.07500
C463        C  0.50008359  0.29308608  0.28726377    -0.02300
C464        C  0.53983037  0.32352206  0.28145573    -0.02300
C465        C  0.53644870  0.03485899  0.25105078     0.07630
C466        C  0.49805600  0.03874197  0.21304394    -0.02500
Br467      Br  0.49371518  0.08852945  0.15694463    -0.01040
Br468      Br  0.40330472  0.04870609  0.22720105    -0.01120
Br469      Br  0.59483611  0.28312430  0.27311094    -0.01080
Br470      Br  0.50442368  0.24329819  0.34336268    -0.01040
C471        C  0.49644077  0.21491857  0.47775690    -0.02180
C472        C  0.54110119  0.20510946  0.50540489     0.07500
C473        C  0.54003355  0.15492116  0.03107718    -0.02300
C474        C  0.50169602  0.11691933  0.02255186    -0.02300
C475        C  0.45701708  0.12667882  0.49490570     0.07630
C476        C  0.45810276  0.17691671  0.46923259    -0.02500
Br477      Br  0.41019744  0.19575115  0.41610423    -0.01040
Br478      Br  0.48483650  0.28451822  0.46015050    -0.01120
Br479      Br  0.51330160  0.04731914  0.04015268    -0.01080
Br480      Br  0.58793806  0.13608581  0.08420600    -0.01060
C481        C  0.65748201  0.12581541  0.46787931    -0.02180
C482        C  0.36610672  0.12766161  0.50158479     0.07500
C483        C  0.36815278  0.16471952  0.04097404    -0.02300
C484        C  0.34065523  0.20602059  0.03243286    -0.02300
C485        C  0.63201058  0.20412659  0.49872023     0.07630
C486        C  0.62998401  0.16711613  0.45933834    -0.02500
Br487      Br  0.58881009  0.16780578  0.39554105    -0.01040
Br488      Br  0.61535066  0.06990142  0.47025790    -0.01120
Br489      Br  0.38278860  0.26193326  0.03005206    -0.01080
Br490      Br  0.40932629  0.16402861  0.10477198    -0.01060
In491      In  0.32840819  0.33234810  0.62608043     1.36870
C492        C  0.38668986  0.27106510  0.69854176     0.77240
O493        O  0.40579543  0.35353964  0.57759451    -0.61200
O494        O  0.34536389  0.06613982  0.57446979    -0.52110
C495        C  0.60370804  0.27659522  0.55038625     0.69910
O496        O  0.61553167  0.26071942  0.59710791    -0.46970
C497        C  0.60430915  0.05878993  0.69788810     0.74610
O498        O  0.34346678  0.28669800  0.70541422    -0.58830
O499        O  0.64669421  0.07213636  0.68200331    -0.48920
O500        O  0.40001914  0.94985261  0.65111358    -0.55260
C501        C  0.38785027  0.05852218  0.55423727     0.84790
O502        O  0.61752190  0.98806554  0.54555030    -0.57150
O503        O  0.59169950  0.35384957  0.67118923    -0.60450
C504        C  0.40637216  0.08943992  0.50034472    -0.02820
C505        C  0.59176532  0.24239694  0.99996605    -0.02820
In506      In  0.33639791  0.33281871  0.87423012     1.36870
C507        C  0.39382903  0.27304065  0.80242237     0.77240
O508        O  0.31944258  0.26569668  0.92584392    -0.61200
O509        O  0.59234296  0.31162824  0.92271406    -0.52110
C510        C  0.39442980  0.05524130  0.94992402     0.69910
O511        O  0.38061873  0.01043672  0.95475973    -0.46970
C512        C  0.61144693  0.06076443  0.80176847     0.74610
O513        O  0.40643874  0.31131614  0.82911834    -0.58830
O514        O  0.59811765  0.04864263  0.84919632    -0.48920
O515        O  0.68477850  0.25969398  0.81831057    -0.55260
C516        C  0.61028843  0.27331381  0.94607379     0.84790
O517        O  0.71593768  0.07111663  0.90320270    -0.57150
O518        O  0.32133797  0.04513485  0.79489656    -0.60450
C519        C  0.42252643  0.25663655  0.74789393    -0.02820
C520        C  0.57561034  0.07519159  0.75241617    -0.02820
C521        C  0.50455768  0.20471963  0.71250518    -0.02180
C522        C  0.45745025  0.20485869  0.74167324     0.07500
C523        C  0.45275568  0.16185608  0.77608349    -0.02300
C524        C  0.49357764  0.12710649  0.78780446    -0.02300
C525        C  0.54068518  0.12696817  0.75863671     0.07630
C526        C  0.54537983  0.16997078  0.72422700    -0.02500
Br527      Br  0.61144607  0.18389555  0.69937566    -0.01040
Br528      Br  0.51284833  0.24913017  0.65094313    -0.01120
Br529      Br  0.48528705  0.08269383  0.84936502    -0.01080
Br530      Br  0.38669030  0.14793305  0.80093838    -0.01060
C531        C  0.45830801  0.00830494  0.71884994    -0.02180
C532        C  0.46169159  0.29696646  0.74925229     0.07500
C533        C  0.50008553  0.29308236  0.78725854    -0.02300
C534        C  0.53983033  0.32352187  0.78145901    -0.02300
C535        C  0.53644659  0.03486025  0.75105641     0.07630
C536        C  0.49805311  0.03874364  0.71304945    -0.02500
Br537      Br  0.49371705  0.08852617  0.65694539    -0.01040
Br538      Br  0.40329421  0.04870165  0.72716855    -0.01120
Br539      Br  0.59484588  0.28312701  0.77314460    -0.01080
Br540      Br  0.50442069  0.24329952  0.84336230    -0.01040
C541        C  0.49645973  0.21496865  0.97775412    -0.02180
C542        C  0.54111955  0.20515913  0.00540434     0.07500
C543        C  0.54001600  0.15487126  0.53107807    -0.02300
C544        C  0.50167708  0.11686933  0.52255484    -0.02300
C545        C  0.45703544  0.12672850  0.99490496     0.07630
C546        C  0.45812029  0.17696675  0.96923178    -0.02500
Br547      Br  0.41021002  0.19580001  0.91610761    -0.01040
Br548      Br  0.48486006  0.28456821  0.96013712    -0.01120
Br549      Br  0.51327815  0.04726923  0.54016610    -0.01080
Br550      Br  0.58792517  0.13603741  0.58420310    -0.01060
C551        C  0.65750287  0.12586475  0.96788566    -0.02180
C552        C  0.36612652  0.12770960  0.00159146     0.07500
C553        C  0.36813102  0.16467063  0.54096774    -0.02300
C554        C  0.34063438  0.20597138  0.53242628    -0.02300
C555        C  0.63203036  0.20417456  0.99872716     0.07630
C556        C  0.63000582  0.16716516  0.95934465    -0.02500
Br557      Br  0.58884478  0.16785974  0.89553821    -0.01040
Br558      Br  0.61537342  0.06995019  0.97025511    -0.01120
Br559      Br  0.38276566  0.26188469  0.53005431    -0.01080
Br560      Br  0.40929234  0.16397519  0.60477435    -0.01060
In561      In  0.32842694  0.66571972  0.12608251     1.36870
C562        C  0.38669518  0.60441032  0.19853528     0.77240
O563        O  0.40581459  0.68691796  0.07759584    -0.61200
O564        O  0.34538610  0.39952110  0.07447890    -0.52110
C565        C  0.60372624  0.60997600  0.05038782     0.69910
O566        O  0.61554448  0.59409857  0.09711026    -0.46970
C567        C  0.60431571  0.39214298  0.19789258     0.74610
O568        O  0.34347624  0.62005428  0.20540891    -0.58830
O569        O  0.64670967  0.40548502  0.18203130    -0.48920
O570        O  0.40002819  0.28320348  0.15110973    -0.55260
C571        C  0.38787090  0.39190297  0.05424194     0.84790
O572        O  0.61754631  0.32144446  0.04555044    -0.57150
O573        O  0.59170406  0.68721825  0.17117046    -0.60450
C574        C  0.40639135  0.42282133  0.00034740    -0.02820
C575        C  0.59174612  0.57568221  0.49996300    -0.02820
In576      In  0.33637962  0.66611446  0.37422776     1.36870
C577        C  0.39382342  0.60635568  0.30241742     0.77240
O578        O  0.31942036  0.59898202  0.42583409    -0.61200
O579        O  0.59232417  0.64491692  0.42271244    -0.52110
C580        C  0.39441179  0.38852739  0.44992262     0.69910
O581        O  0.38059436  0.34372470  0.45475954    -0.46970
C582        C  0.61144276  0.39408745  0.30177454     0.74610
O583        O  0.40643501  0.64461533  0.32913707    -0.58830
O584        O  0.59810962  0.38196005  0.34919977    -0.48920
O585        O  0.68476384  0.59301330  0.31828165    -0.55260
C586        C  0.61026791  0.60659977  0.44606863     0.84790
O587        O  0.71592543  0.40440457  0.40320052    -0.57150
O588        O  0.32132947  0.37844626  0.29490146    -0.60450
C589        C  0.42252799  0.58997034  0.24788856    -0.02820
C590        C  0.57560997  0.40852629  0.25242107    -0.02820
C591        C  0.50456517  0.53805656  0.21250849    -0.02180
C592        C  0.45745304  0.53819420  0.24166790     0.07500
C593        C  0.45275231  0.49519050  0.27607532    -0.02300
C594        C  0.49357143  0.46043833  0.28780047    -0.02300
C595        C  0.54068374  0.46030136  0.25864144     0.07630
C596        C  0.54538451  0.50330505  0.22423437    -0.02500
Br597      Br  0.61145618  0.51722631  0.19939344    -0.01040
Br598      Br  0.51286920  0.58247573  0.15095548    -0.01120
Br599      Br  0.48526696  0.41601701  0.34935186    -0.01080
Br600      Br  0.38668130  0.48127075  0.30091895    -0.01060
C601        C  0.45830896  0.34164002  0.21885280    -0.02180
C602        C  0.46169047  0.63030307  0.24925760     0.07500
C603        C  0.50008360  0.62641943  0.28726377    -0.02300
C604        C  0.53983038  0.65685541  0.28145573    -0.02300
C605        C  0.53644869  0.36819232  0.25105080     0.07630
C606        C  0.49805599  0.37207530  0.21304396    -0.02500
Br607      Br  0.49371517  0.42186279  0.15694467    -0.01040
Br608      Br  0.40330473  0.38203940  0.22720109    -0.01120
Br609      Br  0.59483612  0.61645765  0.27311092    -0.01080
Br610      Br  0.50442369  0.57663155  0.34336268    -0.01040
C611        C  0.49644077  0.54825190  0.47775689    -0.02180
C612        C  0.54110119  0.53844279  0.50540487     0.07500
C613        C  0.54003354  0.48825451  0.03107719    -0.02300
C614        C  0.50169602  0.45025268  0.02255187    -0.02300
C615        C  0.45701708  0.46001215  0.49490568     0.07630
C616        C  0.45810276  0.51025004  0.46923258    -0.02500
Br617      Br  0.41019744  0.52908449  0.41610422    -0.01040
Br618      Br  0.48483649  0.61785155  0.46015051    -0.01120
Br619      Br  0.51330159  0.38065249  0.04015273    -0.01080
Br620      Br  0.58793804  0.46941918  0.08420602    -0.01060
C621        C  0.65748202  0.45914874  0.46787931    -0.02180
C622        C  0.36610672  0.46099493  0.50158476     0.07500
C623        C  0.36815279  0.49805286  0.04097405    -0.02300
C624        C  0.34065523  0.53935393  0.03243287    -0.02300
C625        C  0.63201058  0.53745992  0.49872022     0.07630
C626        C  0.62998402  0.50044946  0.45933833    -0.02500
Br627      Br  0.58881010  0.50113912  0.39554103    -0.01040
Br628      Br  0.61535067  0.40323475  0.47025789    -0.01120
Br629      Br  0.38278861  0.59526661  0.03005206    -0.01080
Br630      Br  0.40932631  0.49736196  0.10477198    -0.01060
In631      In  0.32840819  0.66568142  0.62608044     1.36870
C632        C  0.38668986  0.60439842  0.69854176     0.77240
O633        O  0.40579542  0.68687296  0.57759450    -0.61200
O634        O  0.34536387  0.39947312  0.57446973    -0.52110
C635        C  0.60370804  0.60992855  0.55038624     0.69910
O636        O  0.61553165  0.59405275  0.59710790    -0.46970
C637        C  0.60430915  0.39212325  0.69788810     0.74610
O638        O  0.34346678  0.62003132  0.70541422    -0.58830
O639        O  0.64669420  0.40546969  0.68200329    -0.48920
O640        O  0.40001913  0.28318593  0.65111358    -0.55260
C641        C  0.38785027  0.39185549  0.55423724     0.84790
O642        O  0.61752190  0.32139887  0.54555029    -0.57150
O643        O  0.59169948  0.68718292  0.67118921    -0.60450
C644        C  0.40637216  0.42277324  0.50034470    -0.02820
C645        C  0.59176531  0.57573028  0.99996604    -0.02820
In646      In  0.33639792  0.66615202  0.87423011     1.36870
C647        C  0.39382904  0.60637396  0.80242237     0.77240
O648        O  0.31944258  0.59903001  0.92584393    -0.61200
O649        O  0.59234296  0.64496157  0.92271405    -0.52110
C650        C  0.39442979  0.38857464  0.94992403     0.69910
O651        O  0.38061874  0.34377006  0.95475974    -0.46970
C652        C  0.61144693  0.39409776  0.80176847     0.74610
O653        O  0.40643875  0.64464945  0.82911834    -0.58830
O654        O  0.59811765  0.38197598  0.84919633    -0.48920
O655        O  0.68477848  0.59302730  0.81831053    -0.55260
C656        C  0.61028842  0.60664713  0.94607377     0.84790
O657        O  0.71593768  0.40444997  0.90320273    -0.57150
O658        O  0.32133797  0.37846816  0.79489655    -0.60450
C659        C  0.42252643  0.58996986  0.74789392    -0.02820
C660        C  0.57561034  0.40852491  0.75241617    -0.02820
C661        C  0.50455767  0.53805294  0.71250516    -0.02180
C662        C  0.45745024  0.53819200  0.74167323     0.07500
C663        C  0.45275568  0.49518939  0.77608348    -0.02300
C664        C  0.49357764  0.46043981  0.78780445    -0.02300
C665        C  0.54068518  0.46030149  0.75863670     0.07630
C666        C  0.54537983  0.50330410  0.72422699    -0.02500
Br667      Br  0.61144607  0.51722886  0.69937564    -0.01040
Br668      Br  0.51284831  0.58246348  0.65094311    -0.01120
Br669      Br  0.48528704  0.41602715  0.84936501    -0.01080
Br670      Br  0.38669030  0.48126636  0.80093837    -0.01060
C671        C  0.45830801  0.34163827  0.71884994    -0.02180
C672        C  0.46169159  0.63029977  0.74925227     0.07500
C673        C  0.50008553  0.62641568  0.78725853    -0.02300
C674        C  0.53983033  0.65685520  0.78145899    -0.02300
C675        C  0.53644660  0.36819357  0.75105641     0.07630
C676        C  0.49805312  0.37207696  0.71304944    -0.02500
Br677      Br  0.49371707  0.42185947  0.65694536    -0.01040
Br678      Br  0.40329420  0.38203499  0.72716850    -0.01120
Br679      Br  0.59484587  0.61646034  0.77314455    -0.01080
Br680      Br  0.50442071  0.57663283  0.84336227    -0.01040
C681        C  0.49645973  0.54830199  0.97775410    -0.02180
C682        C  0.54111955  0.53849248  0.00540434     0.07500
C683        C  0.54001600  0.48820458  0.53107805    -0.02300
C684        C  0.50167708  0.45020265  0.52255481    -0.02300
C685        C  0.45703544  0.46006184  0.99490496     0.07630
C686        C  0.45812029  0.51030007  0.96923177    -0.02500
Br687      Br  0.41021002  0.52913333  0.91610760    -0.01040
Br688      Br  0.48486006  0.61790154  0.96013708    -0.01120
Br689      Br  0.51327815  0.38060255  0.54016606    -0.01080
Br690      Br  0.58792517  0.46937073  0.58420308    -0.01060
C691        C  0.65750286  0.45919808  0.96788569    -0.02180
C692        C  0.36612652  0.46104294  0.00159148     0.07500
C693        C  0.36813102  0.49800395  0.54096773    -0.02300
C694        C  0.34063438  0.53930469  0.53242627    -0.02300
C695        C  0.63203036  0.53750790  0.99872716     0.07630
C696        C  0.63000581  0.50049849  0.95934466    -0.02500
Br697      Br  0.58884476  0.50119305  0.89553823    -0.01040
Br698      Br  0.61537342  0.40328352  0.97025516    -0.01120
Br699      Br  0.38276566  0.59521800  0.53005432    -0.01080
Br700      Br  0.40929233  0.49730848  0.60477434    -0.01060
In701      In  0.32842693  0.99905303  0.12608250     1.36870
C702        C  0.38669516  0.93774364  0.19853529     0.77240
O703        O  0.40581458  0.02025130  0.07759585    -0.61200
O704        O  0.34538612  0.73285444  0.07447889    -0.52110
C705        C  0.60372626  0.94330932  0.05038782     0.69910
O706        O  0.61554450  0.92743188  0.09711025    -0.46970
C707        C  0.60431572  0.72547633  0.19789256     0.74610
O708        O  0.34347622  0.95338761  0.20540892    -0.58830
O709        O  0.64670968  0.73881837  0.18203127    -0.48920
O710        O  0.40002820  0.61653682  0.15110974    -0.55260
C711        C  0.38787091  0.72523631  0.05424193     0.84790
O712        O  0.61754631  0.65477780  0.04555042    -0.57150
O713        O  0.59170406  0.02055157  0.17117046    -0.60450
C714        C  0.40639136  0.75615466  0.00034738    -0.02820
C715        C  0.59174611  0.90901555  0.49996302    -0.02820
In716      In  0.33637961  0.99944779  0.37422777     1.36870
C717        C  0.39382341  0.93968901  0.30241742     0.77240
O718        O  0.31942037  0.93231536  0.42583413    -0.61200
O719        O  0.59232416  0.97825025  0.42271245    -0.52110
C720        C  0.39441178  0.72186073  0.44992265     0.69910
O721        O  0.38059436  0.67705805  0.45475956    -0.46970
C722        C  0.61144276  0.72742080  0.30177453     0.74610
O723        O  0.40643499  0.97794869  0.32913705    -0.58830
O724        O  0.59810962  0.71529342  0.34919975    -0.48920
O725        O  0.68476383  0.92634662  0.31828166    -0.55260
C726        C  0.61026790  0.93993310  0.44606865     0.84790
O727        O  0.71592543  0.73773792  0.40320053    -0.57150
O728        O  0.32132948  0.71177960  0.29490147    -0.60450
C729        C  0.42252798  0.92330367  0.24788856    -0.02820
C730        C  0.57560997  0.74185964  0.25242105    -0.02820
C731        C  0.50456516  0.87138990  0.21250847    -0.02180
C732        C  0.45745303  0.87152753  0.24166789     0.07500
C733        C  0.45275231  0.82852384  0.27607532    -0.02300
C734        C  0.49357143  0.79377167  0.28780046    -0.02300
C735        C  0.54068373  0.79363470  0.25864143     0.07630
C736        C  0.54538449  0.83663839  0.22423435    -0.02500
Br737      Br  0.61145616  0.85055965  0.19939340    -0.01040
Br738      Br  0.51286919  0.91580907  0.15095546    -0.01120
Br739      Br  0.48526697  0.74935035  0.34935185    -0.01080
Br740      Br  0.38668131  0.81460409  0.30091897    -0.01060
C741        C  0.45830897  0.67497337  0.21885280    -0.02180
C742        C  0.46169046  0.96363641  0.24925760     0.07500
C743        C  0.50008359  0.95975276  0.28726377    -0.02300
C744        C  0.53983037  0.99018873  0.28145572    -0.02300
C745        C  0.53644870  0.70152567  0.25105079     0.07630
C746        C  0.49805600  0.70540864  0.21304395    -0.02500
Br747      Br  0.49371517  0.75519613  0.15694464    -0.01040
Br748      Br  0.40330474  0.71537275  0.22720109    -0.01120
Br749      Br  0.59483611  0.94979096  0.27311094    -0.01080
Br750      Br  0.50442366  0.90996489  0.34336269    -0.01040
C751        C  0.49644076  0.88158524  0.47775692    -0.02180
C752        C  0.54110118  0.87177613  0.50540490     0.07500
C753        C  0.54003356  0.82158784  0.03107717    -0.02300
C754        C  0.50169604  0.78358600  0.02255185    -0.02300
C755        C  0.45701707  0.79334549  0.49490570     0.07630
C756        C  0.45810275  0.84358338  0.46923261    -0.02500
Br757      Br  0.41019743  0.86241783  0.41610424    -0.01040
Br758      Br  0.48483649  0.95118489  0.46015053    -0.01120
Br759      Br  0.51330161  0.71398581  0.04015270    -0.01080
Br760      Br  0.58793807  0.80275250  0.08420599    -0.01060
C761        C  0.65748200  0.79248208  0.46787932    -0.02180
C762        C  0.36610671  0.79432827  0.50158479     0.07500
C763        C  0.36815280  0.83138620  0.04097402    -0.02300
C764        C  0.34065524  0.87268727  0.03243284    -0.02300
C765        C  0.63201057  0.87079326  0.49872024     0.07630
C766        C  0.62998401  0.83378280  0.45933835    -0.02500
Br767      Br  0.58881008  0.83447246  0.39554106    -0.01040
Br768      Br  0.61535066  0.73656809  0.47025790    -0.01120
Br769      Br  0.38278861  0.92859995  0.03005203    -0.01080
Br770      Br  0.40932633  0.83069531  0.10477195    -0.01060
In771      In  0.32840819  0.99901478  0.62608045     1.36870
C772        C  0.38668987  0.93773177  0.69854176     0.77240
O773        O  0.40579542  0.02020630  0.57759451    -0.61200
O774        O  0.34536388  0.73280646  0.57446977    -0.52110
C775        C  0.60370804  0.94326189  0.55038626     0.69910
O776        O  0.61553165  0.92738610  0.59710792    -0.46970
C777        C  0.60430914  0.72545658  0.69788809     0.74610
O778        O  0.34346679  0.95336466  0.70541422    -0.58830
O779        O  0.64669420  0.73880301  0.68200330    -0.48920
O780        O  0.40001913  0.61651924  0.65111358    -0.55260
C781        C  0.38785027  0.72518883  0.55423726     0.84790
O782        O  0.61752190  0.65473220  0.54555028    -0.57150
O783        O  0.59169948  0.02051627  0.67118921    -0.60450
C784        C  0.40637216  0.75610658  0.50034472    -0.02820
C785        C  0.59176533  0.90906361  0.99996603    -0.02820
In786      In  0.33639792  0.99948537  0.87423011     1.36870
C787        C  0.39382904  0.93970731  0.80242236     0.77240
O788        O  0.31944258  0.93236333  0.92584389    -0.61200
O789        O  0.59234297  0.97829490  0.92271404    -0.52110
C790        C  0.39442980  0.72190796  0.94992402     0.69910
O791        O  0.38061874  0.67710339  0.95475973    -0.46970
C792        C  0.61144692  0.72743108  0.80176845     0.74610
O793        O  0.40643875  0.97798278  0.82911835    -0.58830
O794        O  0.59811764  0.71530930  0.84919631    -0.48920
O795        O  0.68477850  0.92636065  0.81831053    -0.55260
C796        C  0.61028844  0.93998047  0.94607376     0.84790
O797        O  0.71593767  0.73778328  0.90320269    -0.57150
O798        O  0.32133797  0.71180149  0.79489655    -0.60450
C799        C  0.42252644  0.92330321  0.74789392    -0.02820
C800        C  0.57561034  0.74185824  0.75241616    -0.02820
C801        C  0.50455768  0.87138628  0.71250516    -0.02180
C802        C  0.45745025  0.87152534  0.74167323     0.07500
C803        C  0.45275568  0.82852273  0.77608347    -0.02300
C804        C  0.49357763  0.79377314  0.78780444    -0.02300
C805        C  0.54068517  0.79363482  0.75863669     0.07630
C806        C  0.54537983  0.83663744  0.72422698    -0.02500
Br807      Br  0.61144607  0.85056220  0.69937566    -0.01040
Br808      Br  0.51284832  0.91579683  0.65094312    -0.01120
Br809      Br  0.48528704  0.74936049  0.84936500    -0.01080
Br810      Br  0.38669029  0.81459970  0.80093835    -0.01060
C811        C  0.45830800  0.67497159  0.71884993    -0.02180
C812        C  0.46169160  0.96363312  0.74925228     0.07500
C813        C  0.50008554  0.95974902  0.78725853    -0.02300
C814        C  0.53983033  0.99018855  0.78145900    -0.02300
C815        C  0.53644659  0.70152690  0.75105640     0.07630
C816        C  0.49805311  0.70541029  0.71304943    -0.02500
Br817      Br  0.49371705  0.75519281  0.65694537    -0.01040
Br818      Br  0.40329420  0.71536830  0.72716852    -0.01120
Br819      Br  0.59484588  0.94979370  0.77314455    -0.01080
Br820      Br  0.50442072  0.90996617  0.84336226    -0.01040
C821        C  0.49645974  0.88163531  0.97775408    -0.02180
C822        C  0.54111956  0.87182580  0.00540432     0.07500
C823        C  0.54001599  0.82153792  0.53107807    -0.02300
C824        C  0.50167707  0.78353599  0.52255483    -0.02300
C825        C  0.45703545  0.79339516  0.99490494     0.07630
C826        C  0.45812031  0.84363340  0.96923175    -0.02500
Br827      Br  0.41021004  0.86246666  0.91610758    -0.01040
Br828      Br  0.48486007  0.95123487  0.96013707    -0.01120
Br829      Br  0.51327815  0.71393589  0.54016608    -0.01080
Br830      Br  0.58792516  0.80270406  0.58420310    -0.01060
C831        C  0.65750288  0.79253142  0.96788565    -0.02180
C832        C  0.36612654  0.79437627  0.00159145     0.07500
C833        C  0.36813101  0.83133729  0.54096776    -0.02300
C834        C  0.34063438  0.87263803  0.53242630    -0.02300
C835        C  0.63203037  0.87084123  0.99872714     0.07630
C836        C  0.63000583  0.83383183  0.95934463    -0.02500
Br837      Br  0.58884479  0.83452640  0.89553819    -0.01040
Br838      Br  0.61537342  0.73661687  0.97025511    -0.01120
Br839      Br  0.38276566  0.92855134  0.53005434    -0.01080
Br840      Br  0.40929232  0.83064182  0.60477437    -0.01060
In841      In  0.66176026  0.33238637  0.12608251     1.36870
C842        C  0.72002850  0.27107697  0.19853528     0.77240
O843        O  0.73914790  0.35358462  0.07759584    -0.61200
O844        O  0.67871943  0.06618774  0.07447887    -0.52110
C845        C  0.93705958  0.27664266  0.05038784     0.69910
O846        O  0.94887781  0.26076524  0.09711028    -0.46970
C847        C  0.93764905  0.05880964  0.19789257     0.74610
O848        O  0.67680956  0.28672093  0.20540891    -0.58830
O849        O  0.98004300  0.07215169  0.18203127    -0.48920
O850        O  0.73336152  0.94987013  0.15110973    -0.55260
C851        C  0.72120423  0.05856963  0.05424192     0.84790
O852        O  0.95087964  0.98811113  0.04555043    -0.57150
O853        O  0.92503738  0.35388495  0.17117045    -0.60450
C854        C  0.73972469  0.08948799  0.00034738    -0.02820
C855        C  0.92507945  0.24234888  0.49996301    -0.02820
In856      In  0.66971296  0.33278112  0.37422776     1.36870
C857        C  0.72715676  0.27302233  0.30241741     0.77240
O858        O  0.65275370  0.26564867  0.42583409    -0.61200
O859        O  0.92565750  0.31158359  0.42271245    -0.52110
C860        C  0.72774513  0.05519406  0.44992264     0.69910
O861        O  0.71392769  0.01039137  0.45475955    -0.46970
C862        C  0.94477609  0.06075412  0.30177454     0.74610
O863        O  0.73976834  0.31128199  0.32913705    -0.58830
O864        O  0.93144295  0.04862675  0.34919977    -0.48920
O865        O  0.01809716  0.25967997  0.31828162    -0.55260
C866        C  0.94360123  0.27326643  0.44606864     0.84790
O867        O  0.04925876  0.07107125  0.40320054    -0.57150
O868        O  0.65466281  0.04511291  0.29490146    -0.60450
C869        C  0.75586132  0.25663700  0.24788854    -0.02820
C870        C  0.90894330  0.07519296  0.25242106    -0.02820
C871        C  0.83789849  0.20472322  0.21250847    -0.02180
C872        C  0.79078636  0.20486086  0.24166788     0.07500
C873        C  0.78608564  0.16185716  0.27607531    -0.02300
C874        C  0.82690476  0.12710499  0.28780045    -0.02300
C875        C  0.87401706  0.12696802  0.25864143     0.07630
C876        C  0.87871783  0.16997171  0.22423434    -0.02500
Br877      Br  0.94478950  0.18389297  0.19939341    -0.01040
Br878      Br  0.84620252  0.24914239  0.15095545    -0.01120
Br879      Br  0.81860029  0.08268368  0.34935184    -0.01080
Br880      Br  0.72001463  0.14793741  0.30091893    -0.01060
C881        C  0.79164230  0.00830669  0.21885279    -0.02180
C882        C  0.79502380  0.29696974  0.24925758     0.07500
C883        C  0.83341693  0.29308610  0.28726375    -0.02300
C884        C  0.87316370  0.32352208  0.28145571    -0.02300
C885        C  0.86978203  0.03485899  0.25105080     0.07630
C886        C  0.83138933  0.03874196  0.21304395    -0.02500
Br887      Br  0.82704852  0.08852944  0.15694464    -0.01040
Br888      Br  0.73663806  0.04870608  0.22720105    -0.01120
Br889      Br  0.92816944  0.28312432  0.27311088    -0.01080
Br890      Br  0.83775703  0.24329821  0.34336266    -0.01040
C891        C  0.82977411  0.21491856  0.47775689    -0.02180
C892        C  0.87443452  0.20510947  0.50540489     0.07500
C893        C  0.87336688  0.15492117  0.03107718    -0.02300
C894        C  0.83502936  0.11691934  0.02255185    -0.02300
C895        C  0.79035042  0.12667881  0.49490569     0.07630
C896        C  0.79143610  0.17691670  0.46923258    -0.02500
Br897      Br  0.74353079  0.19575113  0.41610420    -0.01040
Br898      Br  0.81816983  0.28451821  0.46015048    -0.01120
Br899      Br  0.84663493  0.04731915  0.04015268    -0.01080
Br900      Br  0.92127139  0.13608582  0.08420600    -0.01060
C901        C  0.99081534  0.12581541  0.46787933    -0.02180
C902        C  0.69944006  0.12766160  0.50158477     0.07500
C903        C  0.70148611  0.16471952  0.04097403    -0.02300
C904        C  0.67398856  0.20602059  0.03243286    -0.02300
C905        C  0.96534391  0.20412660  0.49872023     0.07630
C906        C  0.96331734  0.16711613  0.45933835    -0.02500
Br907      Br  0.92214341  0.16780577  0.39554106    -0.01040
Br908      Br  0.94868399  0.06990142  0.47025793    -0.01120
Br909      Br  0.71612193  0.26193326  0.03005206    -0.01080
Br910      Br  0.74265963  0.16402861  0.10477197    -0.01060
In911      In  0.66174154  0.33234809  0.62608043     1.36870
C912        C  0.72002321  0.27106511  0.69854177     0.77240
O913        O  0.73912876  0.35353962  0.57759449    -0.61200
O914        O  0.67869723  0.06613981  0.57446977    -0.52110
C915        C  0.93704137  0.27659522  0.55038625     0.69910
O916        O  0.94886500  0.26071942  0.59710791    -0.46970
C917        C  0.93764249  0.05878995  0.69788812     0.74610
O918        O  0.67680013  0.28669800  0.70541423    -0.58830
O919        O  0.98002756  0.07213636  0.68200335    -0.48920
O920        O  0.73335249  0.94985261  0.65111357    -0.55260
C921        C  0.72118361  0.05852217  0.55423725     0.84790
O922        O  0.95085524  0.98806555  0.54555032    -0.57150
O923        O  0.92503283  0.35384957  0.67118925    -0.60450
C924        C  0.73970550  0.08943991  0.50034471    -0.02820
C925        C  0.92509865  0.24239696  0.99996606    -0.02820
In926      In  0.66973124  0.33281870  0.87423012     1.36870
C927        C  0.72716237  0.27304066  0.80242238     0.77240
O928        O  0.65277590  0.26569667  0.92584391    -0.61200
O929        O  0.92567630  0.31162825  0.92271407    -0.52110
C930        C  0.72776313  0.05524130  0.94992401     0.69910
O931        O  0.71395207  0.01043672  0.95475971    -0.46970
C932        C  0.94478026  0.06076444  0.80176848     0.74610
O933        O  0.73977207  0.31131615  0.82911835    -0.58830
O934        O  0.93145098  0.04864264  0.84919634    -0.48920
O935        O  0.01811184  0.25969399  0.81831059    -0.55260
C936        C  0.94362177  0.27331382  0.94607379     0.84790
O937        O  0.04927101  0.07111663  0.90320271    -0.57150
O938        O  0.65467130  0.04513484  0.79489654    -0.60450
C939        C  0.75585977  0.25663656  0.74789394    -0.02820
C940        C  0.90894368  0.07519160  0.75241619    -0.02820
C941        C  0.83789102  0.20471965  0.71250520    -0.02180
C942        C  0.79078359  0.20485870  0.74167326     0.07500
C943        C  0.78608902  0.16185609  0.77608350    -0.02300
C944        C  0.82691098  0.12710651  0.78780448    -0.02300
C945        C  0.87401852  0.12696818  0.75863673     0.07630
C946        C  0.87871318  0.16997080  0.72422702    -0.02500
Br947      Br  0.94477942  0.18389556  0.69937569    -0.01040
Br948      Br  0.84618168  0.24913019  0.65094316    -0.01120
Br949      Br  0.81862038  0.08269385  0.84936503    -0.01080
Br950      Br  0.72002364  0.14793305  0.80093837    -0.01060
C951        C  0.79164135  0.00830495  0.71884994    -0.02180
C952        C  0.79502493  0.29696647  0.74925230     0.07500
C953        C  0.83341887  0.29308237  0.78725856    -0.02300
C954        C  0.87316367  0.32352189  0.78145903    -0.02300
C955        C  0.86977993  0.03486027  0.75105642     0.07630
C956        C  0.83138645  0.03874366  0.71304946    -0.02500
Br957      Br  0.82705038  0.08852620  0.65694541    -0.01040
Br958      Br  0.73662753  0.04870165  0.72716853    -0.01120
Br959      Br  0.92817921  0.28312703  0.77314463    -0.01080
Br960      Br  0.83775402  0.24329954  0.84336232    -0.01040
C961        C  0.82979306  0.21496866  0.97775412    -0.02180
C962        C  0.87445289  0.20515914  0.00540434     0.07500
C963        C  0.87334933  0.15487127  0.53107808    -0.02300
C964        C  0.83501041  0.11686933  0.52255485    -0.02300
C965        C  0.79036877  0.12672851  0.99490495     0.07630
C966        C  0.79145362  0.17696675  0.96923177    -0.02500
Br967      Br  0.74354336  0.19580002  0.91610761    -0.01040
Br968      Br  0.81819339  0.28456822  0.96013714    -0.01120
Br969      Br  0.84661149  0.04726924  0.54016614    -0.01080
Br970      Br  0.92125850  0.13603744  0.58420313    -0.01060
C971        C  0.99083620  0.12586477  0.96788567    -0.02180
C972        C  0.69945986  0.12770959  0.00159146     0.07500
C973        C  0.70146436  0.16467063  0.54096773    -0.02300
C974        C  0.67396772  0.20597137  0.53242627    -0.02300
C975        C  0.96536370  0.20417457  0.99872717     0.07630
C976        C  0.96333916  0.16716518  0.95934465    -0.02500
Br977      Br  0.92217813  0.16785977  0.89553820    -0.01040
Br978      Br  0.94870675  0.06995021  0.97025511    -0.01120
Br979      Br  0.71609900  0.26188467  0.53005430    -0.01080
Br980      Br  0.74262567  0.16397518  0.60477434    -0.01060
In981      In  0.66176026  0.66571972  0.12608249     1.36870
C982        C  0.72002851  0.60441033  0.19853527     0.77240
O983        O  0.73914791  0.68691796  0.07759583    -0.61200
O984        O  0.67871944  0.39952111  0.07447892    -0.52110
C985        C  0.93705958  0.60997600  0.05038785     0.69910
O986        O  0.94887782  0.59409857  0.09711029    -0.46970
C987        C  0.93764904  0.39214300  0.19789257     0.74610
O988        O  0.67680956  0.62005428  0.20540889    -0.58830
O989        O  0.98004302  0.40548502  0.18203131    -0.48920
O990        O  0.73336152  0.28320347  0.15110973    -0.55260
C991        C  0.72120423  0.39190297  0.05424195     0.84790
O992        O  0.95087966  0.32144447  0.04555044    -0.57150
O993        O  0.92503740  0.68721825  0.17117050    -0.60450
C994        C  0.73972468  0.42282133  0.00034741    -0.02820
C995        C  0.92507946  0.57568221  0.49996301    -0.02820
In996      In  0.66971295  0.66611446  0.37422776     1.36870
C997        C  0.72715675  0.60635569  0.30241741     0.77240
O998        O  0.65275370  0.59898201  0.42583408    -0.61200
O999        O  0.92565750  0.64491693  0.42271246    -0.52110
C1000       C  0.72774513  0.38852739  0.44992264     0.69910
O1001       O  0.71392770  0.34372471  0.45475955    -0.46970
C1002       C  0.94477608  0.39408746  0.30177453     0.74610
O1003       O  0.73976832  0.64461536  0.32913704    -0.58830
O1004       O  0.93144294  0.38196006  0.34919975    -0.48920
O1005       O  0.01809719  0.59301331  0.31828167    -0.55260
C1006       C  0.94360125  0.60659978  0.44606866     0.84790
O1007       O  0.04925876  0.40440457  0.40320051    -0.57150
O1008       O  0.65466281  0.37844625  0.29490147    -0.60450
C1009       C  0.75586132  0.58997036  0.24788854    -0.02820
C1010       C  0.90894329  0.40852631  0.25242106    -0.02820
C1011       C  0.83789850  0.53805658  0.21250848    -0.02180
C1012       C  0.79078637  0.53819421  0.24166788     0.07500
C1013       C  0.78608564  0.49519052  0.27607531    -0.02300
C1014       C  0.82690476  0.46043835  0.28780046    -0.02300
C1015       C  0.87401706  0.46030137  0.25864143     0.07630
C1016       C  0.87871784  0.50330507  0.22423436    -0.02500
Br1017     Br  0.94478951  0.51722633  0.19939344    -0.01040
Br1018     Br  0.84620254  0.58247576  0.15095547    -0.01120
Br1019     Br  0.81860029  0.41601703  0.34935184    -0.01080
Br1020     Br  0.72001463  0.48127077  0.30091894    -0.01060
C1021       C  0.79164229  0.34164003  0.21885279    -0.02180
C1022       C  0.79502380  0.63030309  0.24925759     0.07500
C1023       C  0.83341693  0.62641944  0.28726377    -0.02300
C1024       C  0.87316371  0.65685542  0.28145574    -0.02300
C1025       C  0.86978202  0.36819234  0.25105078     0.07630
C1026       C  0.83138932  0.37207532  0.21304395    -0.02500
Br1027     Br  0.82704848  0.42186282  0.15694466    -0.01040
Br1028     Br  0.73663805  0.38203941  0.22720108    -0.01120
Br1029     Br  0.92816946  0.61645766  0.27311097    -0.01080
Br1030     Br  0.83775700  0.57663156  0.34336269    -0.01040
C1031       C  0.82977411  0.54825190  0.47775690    -0.02180
C1032       C  0.87443453  0.53844280  0.50540489     0.07500
C1033       C  0.87336688  0.48825452  0.03107721    -0.02300
C1034       C  0.83502935  0.45025268  0.02255189    -0.02300
C1035       C  0.79035042  0.46001215  0.49490569     0.07630
C1036       C  0.79143610  0.51025005  0.46923259    -0.02500
Br1037     Br  0.74353079  0.52908449  0.41610422    -0.01040
Br1038     Br  0.81816983  0.61785156  0.46015052    -0.01120
Br1039     Br  0.84663493  0.38065250  0.04015274    -0.01080
Br1040     Br  0.92127138  0.46941918  0.08420604    -0.01060
C1041       C  0.99081534  0.45914875  0.46787929    -0.02180
C1042       C  0.69944006  0.46099493  0.50158477     0.07500
C1043       C  0.70148611  0.49805287  0.04097404    -0.02300
C1044       C  0.67398855  0.53935393  0.03243285    -0.02300
C1045       C  0.96534392  0.53745993  0.49872023     0.07630
C1046       C  0.96331736  0.50044948  0.45933833    -0.02500
Br1047     Br  0.92214344  0.50113915  0.39554103    -0.01040
Br1048     Br  0.94868399  0.40323477  0.47025787    -0.01120
Br1049     Br  0.71612193  0.59526661  0.03005203    -0.01080
Br1050     Br  0.74265962  0.49736198  0.10477198    -0.01060
In1051     In  0.66174153  0.66568142  0.62608043     1.36870
C1052       C  0.72002320  0.60439842  0.69854175     0.77240
O1053       O  0.73912876  0.68687296  0.57759449    -0.61200
O1054       O  0.67869723  0.39947314  0.57446977    -0.52110
C1055       C  0.93704138  0.60992855  0.55038626     0.69910
O1056       O  0.94886500  0.59405275  0.59710792    -0.46970
C1057       C  0.93764249  0.39212325  0.69788811     0.74610
O1058       O  0.67680012  0.62003130  0.70541420    -0.58830
O1059       O  0.98002753  0.40546971  0.68200328    -0.48920
O1060       O  0.73335248  0.28318593  0.65111359    -0.55260
C1061       C  0.72118362  0.39185550  0.55423725     0.84790
O1062       O  0.95085522  0.32139888  0.54555029    -0.57150
O1063       O  0.92503282  0.68718291  0.67118924    -0.60450
C1064       C  0.73970551  0.42277324  0.50034471    -0.02820
C1065       C  0.92509865  0.57573029  0.99996607    -0.02820
In1066     In  0.66973124  0.66615202  0.87423010     1.36870
C1067       C  0.72716236  0.60637396  0.80242236     0.77240
O1068       O  0.65277588  0.59902998  0.92584388    -0.61200
O1069       O  0.92567630  0.64496157  0.92271407    -0.52110
C1070       C  0.72776313  0.38857463  0.94992403     0.69910
O1071       O  0.71395206  0.34377006  0.95475974    -0.46970
C1072       C  0.94478028  0.39409777  0.80176847     0.74610
O1073       O  0.73977207  0.64464945  0.82911834    -0.58830
O1074       O  0.93145100  0.38197600  0.84919634    -0.48920
O1075       O  0.01811183  0.59302731  0.81831057    -0.55260
C1076       C  0.94362176  0.60664714  0.94607380     0.84790
O1077       O  0.04927102  0.40444998  0.90320274    -0.57150
O1078       O  0.65467130  0.37846815  0.79489655    -0.60450
C1079       C  0.75585977  0.58996987  0.74789392    -0.02820
C1080       C  0.90894369  0.40852492  0.75241618    -0.02820
C1081       C  0.83789102  0.53805295  0.71250517    -0.02180
C1082       C  0.79078358  0.53819201  0.74167323     0.07500
C1083       C  0.78608902  0.49518940  0.77608348    -0.02300
C1084       C  0.82691098  0.46043982  0.78780446    -0.02300
C1085       C  0.87401852  0.46030150  0.75863671     0.07630
C1086       C  0.87871317  0.50330411  0.72422699    -0.02500
Br1087     Br  0.94477941  0.51722888  0.69937566    -0.01040
Br1088     Br  0.84618166  0.58246350  0.65094313    -0.01120
Br1089     Br  0.81862039  0.41602718  0.84936503    -0.01080
Br1090     Br  0.72002364  0.48126637  0.80093837    -0.01060
C1091       C  0.79164135  0.34163828  0.71884995    -0.02180
C1092       C  0.79502493  0.63029978  0.74925228     0.07500
C1093       C  0.83341886  0.62641568  0.78725854    -0.02300
C1094       C  0.87316366  0.65685520  0.78145902    -0.02300
C1095       C  0.86977994  0.36819359  0.75105642     0.07630
C1096       C  0.83138646  0.37207698  0.71304945    -0.02500
Br1097     Br  0.82705041  0.42185948  0.65694538    -0.01040
Br1098     Br  0.73662753  0.38203500  0.72716850    -0.01120
Br1099     Br  0.92817921  0.61646035  0.77314460    -0.01080
Br1100     Br  0.83775403  0.57663284  0.84336229    -0.01040
C1101       C  0.82979306  0.54830199  0.97775412    -0.02180
C1102       C  0.87445288  0.53849248  0.00540436     0.07500
C1103       C  0.87334934  0.48820458  0.53107806    -0.02300
C1104       C  0.83501042  0.45020265  0.52255482    -0.02300
C1105       C  0.79036877  0.46006184  0.99490497     0.07630
C1106       C  0.79145362  0.51030008  0.96923178    -0.02500
Br1107     Br  0.74354336  0.52913333  0.91610761    -0.01040
Br1108     Br  0.81819340  0.61790155  0.96013710    -0.01120
Br1109     Br  0.84661149  0.38060256  0.54016608    -0.01080
Br1110     Br  0.92125851  0.46937073  0.58420309    -0.01060
C1111       C  0.99083620  0.45919810  0.96788570    -0.02180
C1112       C  0.69945985  0.46104293  0.00159148     0.07500
C1113       C  0.70146436  0.49800395  0.54096773    -0.02300
C1114       C  0.67396772  0.53930470  0.53242627    -0.02300
C1115       C  0.96536369  0.53750791  0.99872718     0.07630
C1116       C  0.96333915  0.50049850  0.95934468    -0.02500
Br1117     Br  0.92217811  0.50119307  0.89553824    -0.01040
Br1118     Br  0.94870676  0.40328354  0.97025516    -0.01120
Br1119     Br  0.71609900  0.59521801  0.53005430    -0.01080
Br1120     Br  0.74262568  0.49730850  0.60477434    -0.01060
In1121     In  0.66176027  0.99905303  0.12608249     1.36870
C1122       C  0.72002850  0.93774364  0.19853528     0.77240
O1123       O  0.73914792  0.02025129  0.07759583    -0.61200
O1124       O  0.67871943  0.73285443  0.07447886    -0.52110
C1125       C  0.93705958  0.94330932  0.05038782     0.69910
O1126       O  0.94887782  0.92743188  0.09711026    -0.46970
C1127       C  0.93764906  0.72547633  0.19789259     0.74610
O1128       O  0.67680956  0.95338760  0.20540891    -0.58830
O1129       O  0.98004301  0.73881838  0.18203129    -0.48920
O1130       O  0.73336153  0.61653683  0.15110973    -0.55260
C1131       C  0.72120423  0.72523630  0.05424191     0.84790
O1132       O  0.95087964  0.65477781  0.04555045    -0.57150
O1133       O  0.92503740  0.02055155  0.17117049    -0.60450
C1134       C  0.73972469  0.75615465  0.00034737    -0.02820
C1135       C  0.92507945  0.90901556  0.49996304    -0.02820
In1136     In  0.66971294  0.99944779  0.37422776     1.36870
C1137       C  0.72715675  0.93968901  0.30241742     0.77240
O1138       O  0.65275369  0.93231534  0.42583410    -0.61200
O1139       O  0.92565749  0.97825025  0.42271246    -0.52110
C1140       C  0.72774513  0.72186073  0.44992264     0.69910
O1141       O  0.71392770  0.67705805  0.45475955    -0.46970
C1142       C  0.94477610  0.72742081  0.30177455     0.74610
O1143       O  0.73976832  0.97794867  0.32913705    -0.58830
O1144       O  0.93144296  0.71529342  0.34919978    -0.48920
O1145       O  0.01809717  0.92634662  0.31828168    -0.55260
C1146       C  0.94360124  0.93993311  0.44606868     0.84790
O1147       O  0.04925877  0.73773793  0.40320055    -0.57150
O1148       O  0.65466281  0.71177959  0.29490145    -0.60450
C1149       C  0.75586132  0.92330367  0.24788856    -0.02820
C1150       C  0.90894331  0.74185964  0.25242108    -0.02820
C1151       C  0.83789850  0.87138990  0.21250849    -0.02180
C1152       C  0.79078637  0.87152753  0.24166790     0.07500
C1153       C  0.78608565  0.82852384  0.27607533    -0.02300
C1154       C  0.82690477  0.79377168  0.28780048    -0.02300
C1155       C  0.87401708  0.79363471  0.25864145     0.07630
C1156       C  0.87871784  0.83663840  0.22423437    -0.02500
Br1157     Br  0.94478951  0.85055966  0.19939342    -0.01040
Br1158     Br  0.84620253  0.91580907  0.15095548    -0.01120
Br1159     Br  0.81860032  0.74935036  0.34935188    -0.01080
Br1160     Br  0.72001465  0.81460408  0.30091898    -0.01060
C1161       C  0.79164230  0.67497339  0.21885280    -0.02180
C1162       C  0.79502380  0.96363640  0.24925761     0.07500
C1163       C  0.83341692  0.95975276  0.28726378    -0.02300
C1164       C  0.87316370  0.99018874  0.28145574    -0.02300
C1165       C  0.86978203  0.70152568  0.25105081     0.07630
C1166       C  0.83138934  0.70540866  0.21304396    -0.02500
Br1167     Br  0.82704852  0.75519615  0.15694466    -0.01040
Br1168     Br  0.73663806  0.71537277  0.22720105    -0.01120
Br1169     Br  0.92816945  0.94979097  0.27311097    -0.01080
Br1170     Br  0.83775699  0.90996490  0.34336271    -0.01040
C1171       C  0.82977410  0.88158525  0.47775693    -0.02180
C1172       C  0.87443452  0.87177614  0.50540492     0.07500
C1173       C  0.87336688  0.82158784  0.03107718    -0.02300
C1174       C  0.83502936  0.78358600  0.02255185    -0.02300
C1175       C  0.79035041  0.79334549  0.49490571     0.07630
C1176       C  0.79143609  0.84358339  0.46923261    -0.02500
Br1177     Br  0.74353077  0.86241784  0.41610425    -0.01040
Br1178     Br  0.81816983  0.95118491  0.46015055    -0.01120
Br1179     Br  0.84663493  0.71398582  0.04015272    -0.01080
Br1180     Br  0.92127139  0.80275251  0.08420601    -0.01060
C1181       C  0.99081534  0.79248209  0.46787934    -0.02180
C1182       C  0.69944005  0.79432827  0.50158478     0.07500
C1183       C  0.70148613  0.83138619  0.04097401    -0.02300
C1184       C  0.67398857  0.87268726  0.03243283    -0.02300
C1185       C  0.96534391  0.87079327  0.49872026     0.07630
C1186       C  0.96331735  0.83378281  0.45933837    -0.02500
Br1187     Br  0.92214342  0.83447248  0.39554108    -0.01040
Br1188     Br  0.94868399  0.73656809  0.47025792    -0.01120
Br1189     Br  0.71612195  0.92859994  0.03005202    -0.01080
Br1190     Br  0.74265966  0.83069529  0.10477194    -0.01060
In1191     In  0.66174153  0.99901477  0.62608044     1.36870
C1192       C  0.72002321  0.93773177  0.69854175     0.77240
O1193       O  0.73912875  0.02020629  0.57759449    -0.61200
O1194       O  0.67869722  0.73280646  0.57446976    -0.52110
C1195       C  0.93704138  0.94326190  0.55038628     0.69910
O1196       O  0.94886499  0.92738611  0.59710795    -0.46970
C1197       C  0.93764248  0.72545658  0.69788811     0.74610
O1198       O  0.67680013  0.95336465  0.70541421    -0.58830
O1199       O  0.98002753  0.73880302  0.68200331    -0.48920
O1200       O  0.73335248  0.61651926  0.65111357    -0.55260
C1201       C  0.72118361  0.72518883  0.55423725     0.84790
O1202       O  0.95085523  0.65473220  0.54555031    -0.57150
O1203       O  0.92503281  0.02051630  0.67118922    -0.60450
C1204       C  0.73970550  0.75610659  0.50034472    -0.02820
C1205       C  0.92509865  0.90906361  0.99996604    -0.02820
In1206     In  0.66973125  0.99948536  0.87423010     1.36870
C1207       C  0.72716238  0.93970731  0.80242235     0.77240
O1208       O  0.65277592  0.93236333  0.92584389    -0.61200
O1209       O  0.92567631  0.97829491  0.92271406    -0.52110
C1210       C  0.72776313  0.72190795  0.94992400     0.69910
O1211       O  0.71395206  0.67710338  0.95475971    -0.46970
C1212       C  0.94478026  0.72743109  0.80176848     0.74610
O1213       O  0.73977209  0.97798279  0.82911834    -0.58830
O1214       O  0.93145098  0.71530930  0.84919634    -0.48920
O1215       O  0.01811182  0.92636066  0.81831053    -0.55260
C1216       C  0.94362176  0.93998047  0.94607377     0.84790
O1217       O  0.04927102  0.73778330  0.90320272    -0.57150
O1218       O  0.65467129  0.71180148  0.79489653    -0.60450
C1219       C  0.75585978  0.92330321  0.74789391    -0.02820
C1220       C  0.90894367  0.74185824  0.75241618    -0.02820
C1221       C  0.83789102  0.87138629  0.71250517    -0.02180
C1222       C  0.79078359  0.87152535  0.74167323     0.07500
C1223       C  0.78608901  0.82852274  0.77608347    -0.02300
C1224       C  0.82691096  0.79377315  0.78780445    -0.02300
C1225       C  0.87401851  0.79363482  0.75863671     0.07630
C1226       C  0.87871317  0.83663744  0.72422700    -0.02500
Br1227     Br  0.94477942  0.85056220  0.69937568    -0.01040
Br1228     Br  0.84618167  0.91579683  0.65094313    -0.01120
Br1229     Br  0.81862036  0.74936050  0.84936501    -0.01080
Br1230     Br  0.72002363  0.81459970  0.80093833    -0.01060
C1231       C  0.79164134  0.67497159  0.71884994    -0.02180
C1232       C  0.79502494  0.96363313  0.74925227     0.07500
C1233       C  0.83341888  0.95974903  0.78725853    -0.02300
C1234       C  0.87316367  0.99018856  0.78145900    -0.02300
C1235       C  0.86977992  0.70152691  0.75105642     0.07630
C1236       C  0.83138645  0.70541029  0.71304945    -0.02500
Br1237     Br  0.82705039  0.75519281  0.65694539    -0.01040
Br1238     Br  0.73662753  0.71536830  0.72716851    -0.01120
Br1239     Br  0.92817921  0.94979372  0.77314454    -0.01080
Br1240     Br  0.83775407  0.90996617  0.84336226    -0.01040
C1241       C  0.82979307  0.88163531  0.97775408    -0.02180
C1242       C  0.87445289  0.87182580  0.00540432     0.07500
C1243       C  0.87334933  0.82153793  0.53107809    -0.02300
C1244       C  0.83501041  0.78353600  0.52255484    -0.02300
C1245       C  0.79036878  0.79339516  0.99490493     0.07630
C1246       C  0.79145364  0.84363340  0.96923174    -0.02500
Br1247     Br  0.74354337  0.86246665  0.91610757    -0.01040
Br1248     Br  0.81819340  0.95123487  0.96013706    -0.01120
Br1249     Br  0.84661149  0.71393590  0.54016609    -0.01080
Br1250     Br  0.92125849  0.80270408  0.58420312    -0.01060
C1251       C  0.99083621  0.79253142  0.96788568    -0.02180
C1252       C  0.69945987  0.79437626  0.00159144     0.07500
C1253       C  0.70146434  0.83133729  0.54096775    -0.02300
C1254       C  0.67396770  0.87263803  0.53242629    -0.02300
C1255       C  0.96536370  0.87084123  0.99872715     0.07630
C1256       C  0.96333916  0.83383182  0.95934465    -0.02500
Br1257     Br  0.92217812  0.83452639  0.89553820    -0.01040
Br1258     Br  0.94870676  0.73661686  0.97025515    -0.01120
Br1259     Br  0.71609899  0.92855133  0.53005433    -0.01080
Br1260     Br  0.74262565  0.83064183  0.60477437    -0.01060
loop_ 
_geom_bond_atom_site_label_1 
_geom_bond_atom_site_label_2 
_geom_bond_distance 
_geom_bond_site_symmetry_2 
_ccdc_geom_bond_type 
In1           O3   2.469   1_655  S
In1           O8   2.324   1_655  S
In1         O144   2.222   1_655  S
In1         O992   2.343       .  S
In1         O846   2.395       .  S
In1         O989   2.454       .  S
In1         O150   2.411   1_655  S
In1         O853   2.282       .  S
C2            O8   1.254       .  A
C2          O150   1.265       .  A
C2           C29   1.597       .  S
O3          C151   1.260       .  A
O4         In281   2.222   1_445  S
O4           C11   1.272       .  A
C5            O6   1.264       .  A
C5          O152   1.252       .  A
C5           C85   1.595   1_554  S
O6         In421   2.395       .  S
C7            O9   1.257       .  A
C7          O293   1.272       .  A
C7           C30   1.630       .  S
O9         In701   2.454   1_545  S
O10        In281   2.411   1_455  S
O10         C282   1.265       .  A
C11         O283   1.260       .  A
C11          C14   1.632       .  S
O12        In701   2.343       .  S
O12         C285   1.252       .  A
O13        In421   2.282       .  S
O13         C147   1.272       .  A
C14          C90   1.595   1_554  S
C14         C125   1.688   1_554  S
C14         C132   1.494       .  S
C15          C26   1.632       .  S
C15          C52   1.688       .  S
C15          C65   1.494       .  S
C15          C75   1.595       .  S
In16         O18   2.222   1_455  S
In16         O23   2.282       .  S
In16        O859   2.469   1_455  S
In16       O1007   2.395       .  S
In16        O161   2.343       .  S
In16       O1004   2.411   1_455  S
In16        O865   2.454       .  S
In16        O168   2.324   1_455  S
C17          O23   1.272       .  A
C17         O865   1.257       .  A
C17          C29   1.630       .  S
O18         C866   1.272       .  A
O19        In436   2.469       .  S
O19          C26   1.260       .  A
C20          O21   1.252       .  A
C20         O867   1.264       .  A
C20          C84   1.595       .  S
O21        In296   2.343   1_545  S
C22          O24   1.265       .  A
C22         O448   1.254       .  A
C22          C30   1.597       .  S
O24        In716   2.411   1_545  S
O25        In436   2.454       .  S
O25         C437   1.257       .  A
C26         O438   1.272       .  A
O27        In716   2.395   1_545  S
O27         C440   1.264       .  A
O28        In296   2.324   1_645  S
O28         C862   1.254       .  A
C29          C32   1.686       .  S
C29          C42   1.503       .  S
C30          C35   1.686       .  S
C30          C45   1.503       .  S
C31          C32   1.465       .  A
C31          C36   1.467       .  A
C31         Br38   1.923       .  S
C32          C33   1.418       .  A
C33          C34   1.467       .  A
C33         Br40   1.919       .  S
C34          C35   1.465       .  A
C34         Br39   1.923       .  S
C35          C36   1.418       .  A
C36         Br37   1.919       .  S
C41          C46   1.347       .  A
C41         C322   1.398   1_545  A
C41         Br48   1.853       .  S
C42          C43   1.399       .  A
C42         C181   1.398       .  A
C43          C44   1.347       .  A
C43         Br50   1.904       .  S
C44         C185   1.398       .  A
C44         Br49   1.853       .  S
C45          C46   1.399       .  A
C45         C324   1.398   1_545  A
C46         Br47   1.904       .  S
C51          C52   1.406       .  A
C51          C56   1.461       .  A
C51         Br58   1.923       .  S
C52         C123   1.470       .  A
C53          C54   1.461       .  A
C53         C122   1.470       .  A
C53         Br60   1.902       .  S
C54         C125   1.406   1_554  A
C54         Br59   1.923       .  S
C55          C84   1.688       .  S
C55          C56   1.470       .  A
C55         C124   1.406       .  A
C56         Br57   1.902       .  S
C61          C66   1.343       .  A
C61         C482   1.404       .  A
C61         Br68   1.869       .  S
C62          C84   1.494       .  S
C62         C901   1.404   1_455  A
C62         C133   1.404       .  A
C63          C64   1.343       .  A
C63         C132   1.404       .  A
C63         Br70   1.927       .  S
C64         C975   1.404   1_454  A
C64         Br69   1.869       .  S
C65          C66   1.404       .  A
C65         C554   1.404       .  A
C66         Br67   1.927       .  S
In71         O73   2.469   1_655  S
In71        O214   2.222   1_655  S
In71       O1062   2.343       .  S
In71        O916   2.395       .  S
In71         O78   2.324   1_655  S
In71       O1059   2.454       .  S
In71        O220   2.411   1_655  S
In71        O923   2.282       .  S
C72          O78   1.254       .  A
C72         O220   1.265       .  A
C72          C99   1.597       .  S
O73         C221   1.260       .  A
O74        In351   2.222   1_445  S
O74          C81   1.272       .  A
C75         O222   1.252       .  A
C75          O76   1.264       .  A
O76        In491   2.395       .  S
C77          O79   1.257       .  A
C77         O363   1.272       .  A
C77         C100   1.630       .  S
O79        In771   2.454   1_545  S
O80        In351   2.411   1_455  S
O80         C352   1.265       .  A
C81         O353   1.260       .  A
C81          C84   1.632       .  S
O82        In771   2.343       .  S
O82         C355   1.252       .  A
O83        In491   2.282       .  S
O83         C217   1.272       .  A
C85          C96   1.632       .  S
C85         C122   1.688   1_556  S
C85         C135   1.494       .  S
In86         O88   2.222   1_455  S
In86        O929   2.469   1_455  S
In86       O1077   2.395       .  S
In86        O231   2.343       .  S
In86         O93   2.282       .  S
In86       O1074   2.411   1_455  S
In86        O935   2.454       .  S
In86        O238   2.324   1_455  S
C87          O93   1.272       .  A
C87         O935   1.257       .  A
C87          C99   1.630       .  S
O88         C936   1.272       .  A
O89        In506   2.469       .  S
O89          C96   1.260       .  A
C90         O937   1.264       .  A
C90          O91   1.252       .  A
O91        In366   2.343   1_545  S
C92          O94   1.265       .  A
C92         O518   1.254       .  A
C92         C100   1.597       .  S
O94        In786   2.411   1_545  S
O95        In506   2.454       .  S
O95         C507   1.257       .  A
C96         O508   1.272       .  A
O97        In786   2.395   1_545  S
O97         C510   1.264       .  A
O98        In366   2.324   1_645  S
O98         C932   1.254       .  A
C99         C102   1.686       .  S
C99         C112   1.503       .  S
C100        C105   1.686       .  S
C100        C115   1.503       .  S
C101        C102   1.465       .  A
C101        C106   1.467       .  A
C101       Br108   1.923       .  S
C102        C103   1.418       .  A
C103        C104   1.467       .  A
C103       Br110   1.919       .  S
C104        C105   1.465       .  A
C104       Br109   1.923       .  S
C105        C106   1.418       .  A
C106       Br107   1.919       .  S
C111        C392   1.398   1_545  A
C111        C116   1.347       .  A
C111       Br118   1.853       .  S
C112        C251   1.398       .  A
C112        C113   1.399       .  A
C113        C114   1.347       .  A
C113       Br120   1.904       .  S
C114        C255   1.398       .  A
C114       Br119   1.853       .  S
C115        C394   1.398   1_545  A
C115        C116   1.399       .  A
C116       Br117   1.904       .  S
C121        C122   1.406   1_556  A
C121        C126   1.461       .  A
C121       Br128   1.923       .  S
C123        C124   1.461       .  A
C123       Br130   1.902       .  S
C124       Br129   1.923       .  S
C125        C126   1.470       .  A
C126       Br127   1.902       .  S
C131        C552   1.404   1_556  A
C131        C136   1.343       .  A
C131       Br138   1.869       .  S
C132        C971   1.404   1_454  A
C133        C134   1.343       .  A
C133       Br140   1.927       .  S
C134        C905   1.404   1_455  A
C134       Br139   1.869       .  S
C135        C484   1.404   1_556  A
C135        C136   1.404       .  A
C136       Br137   1.927       .  S
In141       O143   2.469   1_655  S
In141       O284   2.222   1_655  S
In141      O1132   2.343       .  S
In141       O986   2.395       .  S
In141       O148   2.324   1_655  S
In141      O1129   2.454       .  S
In141       O290   2.411   1_655  S
In141       O993   2.282       .  S
C142        O148   1.254       .  A
C142        O290   1.265       .  A
C142        C169   1.597       .  S
O143        C291   1.260       .  A
O144        C151   1.272       .  A
C145        O292   1.252       .  A
C145        O146   1.264       .  A
C145        C225   1.595   1_554  S
O146       In561   2.395       .  S
C147        O149   1.257       .  A
C147        C170   1.630       .  S
O149       In421   2.454       .  S
C151        C154   1.632       .  S
O152       In421   2.343       .  S
O153       In561   2.282       .  S
O153        C287   1.272       .  A
C154        C230   1.595   1_554  S
C154        C265   1.688   1_554  S
C154        C272   1.494       .  S
C155        C215   1.595       .  S
C155        C166   1.632       .  S
C155        C192   1.688       .  S
C155        C205   1.494       .  S
In156       O158   2.222   1_455  S
In156       O999   2.469   1_455  S
In156      O1147   2.395       .  S
In156       O301   2.343       .  S
In156       O163   2.282       .  S
In156      O1144   2.411   1_455  S
In156      O1005   2.454       .  S
In156       O308   2.324   1_455  S
C157        O163   1.272       .  A
C157       O1005   1.257       .  A
C157        C169   1.630       .  S
O158       C1006   1.272       .  A
O159       In576   2.469       .  S
O159        C166   1.260       .  A
C160       O1007   1.264       .  A
C160        O161   1.252       .  A
C160        C224   1.595       .  S
C162        O164   1.265       .  A
C162        O588   1.254       .  A
C162        C170   1.597       .  S
O164       In436   2.411       .  S
O165       In576   2.454       .  S
O165        C577   1.257       .  A
C166        O578   1.272       .  A
O167       In436   2.395       .  S
O167        C580   1.264       .  A
O168       C1002   1.254       .  A
C169        C172   1.686       .  S
C169        C182   1.503       .  S
C170        C175   1.686       .  S
C170        C185   1.503       .  S
C171        C172   1.465       .  A
C171        C176   1.467       .  A
C171       Br178   1.923       .  S
C172        C173   1.418       .  A
C173        C174   1.467       .  A
C173       Br180   1.919       .  S
C174        C175   1.465       .  A
C174       Br179   1.923       .  S
C175        C176   1.418       .  A
C176       Br177   1.919       .  S
C181        C186   1.347       .  A
C181       Br188   1.853       .  S
C182        C321   1.398       .  A
C182        C183   1.399       .  A
C183        C184   1.347       .  A
C183       Br190   1.904       .  S
C184        C325   1.398       .  A
C184       Br189   1.853       .  S
C185        C186   1.399       .  A
C186       Br187   1.904       .  S
C191        C192   1.406       .  A
C191        C196   1.461       .  A
C191       Br198   1.923       .  S
C192        C263   1.470       .  A
C193        C262   1.470       .  A
C193        C194   1.461       .  A
C193       Br200   1.902       .  S
C194        C265   1.406   1_554  A
C194       Br199   1.923       .  S
C195        C224   1.688       .  S
C195        C264   1.406       .  A
C195        C196   1.470       .  A
C196       Br197   1.902       .  S
C201        C622   1.404       .  A
C201        C206   1.343       .  A
C201       Br208   1.869       .  S
C202        C224   1.494       .  S
C202       C1041   1.404   1_455  A
C202        C273   1.404       .  A
C203        C272   1.404       .  A
C203        C204   1.343       .  A
C203       Br210   1.927       .  S
C204       C1115   1.404   1_454  A
C204       Br209   1.869       .  S
C205        C694   1.404       .  A
C205        C206   1.404       .  A
C206       Br207   1.927       .  S
In211       O213   2.469   1_655  S
In211       O354   2.222   1_655  S
In211      O1202   2.343       .  S
In211      O1056   2.395       .  S
In211       O218   2.324   1_655  S
In211      O1199   2.454       .  S
In211       O360   2.411   1_655  S
In211      O1063   2.282       .  S
C212        O218   1.254       .  A
C212        O360   1.265       .  A
C212        C239   1.597       .  S
O213        C361   1.260       .  A
O214        C221   1.272       .  A
C215        O362   1.252       .  A
C215        O216   1.264       .  A
O216       In631   2.395       .  S
C217        O219   1.257       .  A
C217        C240   1.630       .  S
O219       In491   2.454       .  S
C221        C224   1.632       .  S
O222       In491   2.343       .  S
O223       In631   2.282       .  S
O223        C357   1.272       .  A
C225        C236   1.632       .  S
C225        C262   1.688   1_556  S
C225        C275   1.494       .  S
In226       O228   2.222   1_455  S
In226      O1069   2.469   1_455  S
In226      O1217   2.395       .  S
In226       O371   2.343       .  S
In226       O233   2.282       .  S
In226      O1214   2.411   1_455  S
In226      O1075   2.454       .  S
In226       O378   2.324   1_455  S
C227        O233   1.272       .  A
C227       O1075   1.257       .  A
C227        C239   1.630       .  S
O228       C1076   1.272       .  A
O229       In646   2.469       .  S
O229        C236   1.260       .  A
C230       O1077   1.264       .  A
C230        O231   1.252       .  A
C232        O234   1.265       .  A
C232        O658   1.254       .  A
C232        C240   1.597       .  S
O234       In506   2.411       .  S
O235       In646   2.454       .  S
O235        C647   1.257       .  A
C236        O648   1.272       .  A
O237       In506   2.395       .  S
O237        C650   1.264       .  A
O238       C1072   1.254       .  A
C239        C242   1.686       .  S
C239        C252   1.503       .  S
C240        C245   1.686       .  S
C240        C255   1.503       .  S
C241        C242   1.465       .  A
C241        C246   1.467       .  A
C241       Br248   1.923       .  S
C242        C243   1.418       .  A
C243        C244   1.467       .  A
C243       Br250   1.919       .  S
C244        C245   1.465       .  A
C244       Br249   1.923       .  S
C245        C246   1.418       .  A
C246       Br247   1.919       .  S
C251        C256   1.347       .  A
C251       Br258   1.853       .  S
C252        C391   1.398       .  A
C252        C253   1.399       .  A
C253        C254   1.347       .  A
C253       Br260   1.904       .  S
C254        C395   1.398       .  A
C254       Br259   1.853       .  S
C255        C256   1.399       .  A
C256       Br257   1.904       .  S
C261        C262   1.406   1_556  A
C261        C266   1.461       .  A
C261       Br268   1.923       .  S
C263        C264   1.461       .  A
C263       Br270   1.902       .  S
C264       Br269   1.923       .  S
C265        C266   1.470       .  A
C266       Br267   1.902       .  S
C271        C692   1.404   1_556  A
C271        C276   1.343       .  A
C271       Br278   1.869       .  S
C272       C1111   1.404   1_454  A
C273        C274   1.343       .  A
C273       Br280   1.927       .  S
C274       C1045   1.404   1_455  A
C274       Br279   1.869       .  S
C275        C624   1.404   1_556  A
C275        C276   1.404       .  A
C276       Br277   1.927       .  S
In281       O283   2.469   1_665  S
In281       O852   2.343       .  S
In281      O1126   2.395       .  S
In281       O288   2.324   1_655  S
In281       O849   2.454   1_565  S
In281      O1133   2.282   1_565  S
C282        O288   1.254       .  A
C282        C309   1.597       .  S
O284        C291   1.272       .  A
C285        O286   1.264       .  A
C285        C365   1.595   1_554  S
O286       In701   2.395       .  S
C287        O289   1.257       .  A
C287        C310   1.630       .  S
O289       In561   2.454       .  S
C291        C294   1.632       .  S
O292       In561   2.343       .  S
O293       In701   2.282   1_545  S
C294        C370   1.595   1_554  S
C294        C405   1.688   1_554  S
C294        C412   1.494       .  S
C295        C355   1.595       .  S
C295        C306   1.632       .  S
C295        C332   1.688       .  S
C295        C345   1.494       .  S
In296       O298   2.222   1_455  S
In296      O1139   2.469   1_455  S
In296       O867   2.395   1_565  S
In296       O303   2.282       .  S
In296       O864   2.411   1_465  S
In296      O1145   2.454       .  S
C297        O303   1.272       .  A
C297       O1145   1.257       .  A
C297        C309   1.630       .  S
O298       C1146   1.272       .  A
O299       In716   2.469       .  S
O299        C306   1.260       .  A
C300       O1147   1.264       .  A
C300        O301   1.252       .  A
C300        C364   1.595       .  S
C302        O304   1.265       .  A
C302        O728   1.254       .  A
C302        C310   1.597       .  S
O304       In576   2.411       .  S
O305       In716   2.454       .  S
O305        C717   1.257       .  A
C306        O718   1.272       .  A
O307       In576   2.395       .  S
O307        C720   1.264       .  A
O308       C1142   1.254       .  A
C309        C312   1.686       .  S
C309        C322   1.503       .  S
C310        C315   1.686       .  S
C310        C325   1.503       .  S
C311        C312   1.465       .  A
C311        C316   1.467       .  A
C311       Br318   1.923       .  S
C312        C313   1.418       .  A
C313        C314   1.467       .  A
C313       Br320   1.919       .  S
C314        C315   1.465       .  A
C314       Br319   1.923       .  S
C315        C316   1.418       .  A
C316       Br317   1.919       .  S
C321        C326   1.347       .  A
C321       Br328   1.853       .  S
C322        C323   1.399       .  A
C323        C324   1.347       .  A
C323       Br330   1.904       .  S
C324       Br329   1.853       .  S
C325        C326   1.399       .  A
C326       Br327   1.904       .  S
C331        C332   1.406       .  A
C331        C336   1.461       .  A
C331       Br338   1.923       .  S
C332        C403   1.470       .  A
C333        C402   1.470       .  A
C333        C334   1.461       .  A
C333       Br340   1.902       .  S
C334        C405   1.406   1_554  A
C334       Br339   1.923       .  S
C335        C364   1.688       .  S
C335        C404   1.406       .  A
C335        C336   1.470       .  A
C336       Br337   1.902       .  S
C341        C762   1.404       .  A
C341        C346   1.343       .  A
C341       Br348   1.869       .  S
C342        C364   1.494       .  S
C342       C1181   1.404   1_455  A
C342        C413   1.404       .  A
C343        C412   1.404       .  A
C343        C344   1.343       .  A
C343       Br350   1.927       .  S
C344       C1255   1.404   1_454  A
C344       Br349   1.869       .  S
C345        C834   1.404       .  A
C345        C346   1.404       .  A
C346       Br347   1.927       .  S
In351       O353   2.469   1_665  S
In351       O922   2.343       .  S
In351      O1196   2.395       .  S
In351       O358   2.324   1_655  S
In351       O919   2.454   1_565  S
In351      O1203   2.282   1_565  S
C352        O358   1.254       .  A
C352        C379   1.597       .  S
O354        C361   1.272       .  A
C355        O356   1.264       .  A
O356       In771   2.395       .  S
C357        O359   1.257       .  A
C357        C380   1.630       .  S
O359       In631   2.454       .  S
C361        C364   1.632       .  S
O362       In631   2.343       .  S
O363       In771   2.282   1_545  S
C365        C376   1.632       .  S
C365        C402   1.688   1_556  S
C365        C415   1.494       .  S
In366       O368   2.222   1_455  S
In366      O1209   2.469   1_455  S
In366       O937   2.395   1_565  S
In366       O373   2.282       .  S
In366       O934   2.411   1_465  S
In366      O1215   2.454       .  S
C367        O373   1.272       .  A
C367       O1215   1.257       .  A
C367        C379   1.630       .  S
O368       C1216   1.272       .  A
O369       In786   2.469       .  S
O369        C376   1.260       .  A
C370       O1217   1.264       .  A
C370        O371   1.252       .  A
C372        O374   1.265       .  A
C372        O798   1.254       .  A
C372        C380   1.597       .  S
O374       In646   2.411       .  S
O375       In786   2.454       .  S
O375        C787   1.257       .  A
C376        O788   1.272       .  A
O377       In646   2.395       .  S
O377        C790   1.264       .  A
O378       C1212   1.254       .  A
C379        C382   1.686       .  S
C379        C392   1.503       .  S
C380        C385   1.686       .  S
C380        C395   1.503       .  S
C381        C382   1.465       .  A
C381        C386   1.467       .  A
C381       Br388   1.923       .  S
C382        C383   1.418       .  A
C383        C384   1.467       .  A
C383       Br390   1.919       .  S
C384        C385   1.465       .  A
C384       Br389   1.923       .  S
C385        C386   1.418       .  A
C386       Br387   1.919       .  S
C391        C396   1.347       .  A
C391       Br398   1.853       .  S
C392        C393   1.399       .  A
C393        C394   1.347       .  A
C393       Br400   1.904       .  S
C394       Br399   1.853       .  S
C395        C396   1.399       .  A
C396       Br397   1.904       .  S
C401        C402   1.406   1_556  A
C401        C406   1.461       .  A
C401       Br408   1.923       .  S
C403        C404   1.461       .  A
C403       Br410   1.902       .  S
C404       Br409   1.923       .  S
C405        C406   1.470       .  A
C406       Br407   1.902       .  S
C411        C832   1.404   1_556  A
C411        C416   1.343       .  A
C411       Br418   1.869       .  S
C412       C1251   1.404   1_454  A
C413        C414   1.343       .  A
C413       Br420   1.927       .  S
C414       C1185   1.404   1_455  A
C414       Br419   1.869       .  S
C415        C764   1.404   1_556  A
C415        C416   1.404       .  A
C416       Br417   1.927       .  S
In421       O423   2.469       .  S
In421       O564   2.222       .  S
In421       O428   2.324       .  S
In421       O570   2.411       .  S
C422        O428   1.254       .  A
C422        O570   1.265       .  A
C422        C449   1.597       .  S
O423        C571   1.260       .  A
O424       In701   2.222   1_545  S
O424        C431   1.272       .  A
C425        O572   1.252       .  A
C425        O426   1.264       .  A
C425        C505   1.595   1_554  S
O426       In841   2.395       .  S
C427        O429   1.257       .  A
C427        O713   1.272       .  A
C427        C450   1.630       .  S
O429      In1121   2.454   1_545  S
O430       In701   2.411       .  S
O430        C702   1.265       .  A
C431        O703   1.260       .  A
C431        C434   1.632       .  S
O432      In1121   2.343       .  S
O432        C705   1.252       .  A
O433       In841   2.282       .  S
O433        C567   1.272       .  A
C434        C510   1.595   1_554  S
C434        C545   1.688   1_554  S
C434        C552   1.494       .  S
C435        C495   1.595       .  S
C435        C446   1.632       .  S
C435        C472   1.688       .  S
C435        C485   1.494       .  S
In436       O438   2.222       .  S
In436       O581   2.343       .  S
In436       O443   2.282       .  S
In436       O588   2.324       .  S
C437        O443   1.272       .  A
C437        C449   1.630       .  S
O439       In856   2.469       .  S
O439        C446   1.260       .  A
C440        O441   1.252       .  A
C440        C504   1.595       .  S
O441       In716   2.343   1_545  S
C442        O444   1.265       .  A
C442        O868   1.254       .  A
C442        C450   1.597       .  S
O444      In1136   2.411   1_545  S
O445       In856   2.454       .  S
O445        C857   1.257       .  A
C446        O858   1.272       .  A
O447      In1136   2.395   1_545  S
O447        C860   1.264       .  A
O448       In716   2.324   1_545  S
C449        C452   1.686       .  S
C449        C462   1.503       .  S
C450        C455   1.686       .  S
C450        C465   1.503       .  S
C451        C452   1.465       .  A
C451        C456   1.467       .  A
C451       Br458   1.923       .  S
C452        C453   1.418       .  A
C453        C454   1.467       .  A
C453       Br460   1.919       .  S
C454        C455   1.465       .  A
C454       Br459   1.923       .  S
C455        C456   1.418       .  A
C456       Br457   1.919       .  S
C461        C742   1.398   1_545  A
C461        C466   1.347       .  A
C461       Br468   1.853       .  S
C462        C601   1.398       .  A
C462        C463   1.399       .  A
C463        C464   1.347       .  A
C463       Br470   1.904       .  S
C464        C605   1.398       .  A
C464       Br469   1.853       .  S
C465        C744   1.398   1_545  A
C465        C466   1.399       .  A
C466       Br467   1.904       .  S
C471        C472   1.406       .  A
C471        C476   1.461       .  A
C471       Br478   1.923       .  S
C472        C543   1.470       .  A
C473        C542   1.470       .  A
C473        C474   1.461       .  A
C473       Br480   1.902       .  S
C474        C545   1.406   1_554  A
C474       Br479   1.923       .  S
C475        C504   1.688       .  S
C475        C544   1.406       .  A
C475        C476   1.470       .  A
C476       Br477   1.902       .  S
C481        C902   1.404       .  A
C481        C486   1.343       .  A
C481       Br488   1.869       .  S
C482        C504   1.494       .  S
C482        C553   1.404       .  A
C483        C552   1.404       .  A
C483        C484   1.343       .  A
C483       Br490   1.927       .  S
C484       Br489   1.869       .  S
C485        C974   1.404       .  A
C485        C486   1.404       .  A
C486       Br487   1.927       .  S
In491       O493   2.469       .  S
In491       O634   2.222       .  S
In491       O498   2.324       .  S
In491       O640   2.411       .  S
C492        O498   1.254       .  A
C492        O640   1.265       .  A
C492        C519   1.597       .  S
O493        C641   1.260       .  A
O494       In771   2.222   1_545  S
O494        C501   1.272       .  A
C495        O642   1.252       .  A
C495        O496   1.264       .  A
O496       In911   2.395       .  S
C497        O499   1.257       .  A
C497        O783   1.272       .  A
C497        C520   1.630       .  S
O499      In1191   2.454   1_545  S
O500       In771   2.411       .  S
O500        C772   1.265       .  A
C501        O773   1.260       .  A
C501        C504   1.632       .  S
O502      In1191   2.343       .  S
O502        C775   1.252       .  A
O503       In911   2.282       .  S
O503        C637   1.272       .  A
C505        C516   1.632       .  S
C505        C542   1.688   1_556  S
C505        C555   1.494       .  S
In506       O508   2.222       .  S
In506       O651   2.343       .  S
In506       O513   2.282       .  S
In506       O658   2.324       .  S
C507        O513   1.272       .  A
C507        C519   1.630       .  S
O509       In926   2.469       .  S
O509        C516   1.260       .  A
C510        O511   1.252       .  A
O511       In786   2.343   1_545  S
C512        O514   1.265       .  A
C512        O938   1.254       .  A
C512        C520   1.597       .  S
O514      In1206   2.411   1_545  S
O515       In926   2.454       .  S
O515        C927   1.257       .  A
C516        O928   1.272       .  A
O517      In1206   2.395   1_545  S
O517        C930   1.264       .  A
O518       In786   2.324   1_545  S
C519        C522   1.686       .  S
C519        C532   1.503       .  S
C520        C525   1.686       .  S
C520        C535   1.503       .  S
C521        C522   1.465       .  A
C521        C526   1.467       .  A
C521       Br528   1.923       .  S
C522        C523   1.418       .  A
C523        C524   1.467       .  A
C523       Br530   1.919       .  S
C524        C525   1.465       .  A
C524       Br529   1.923       .  S
C525        C526   1.418       .  A
C526       Br527   1.919       .  S
C531        C812   1.398   1_545  A
C531        C536   1.347       .  A
C531       Br538   1.853       .  S
C532        C671   1.398       .  A
C532        C533   1.399       .  A
C533        C534   1.347       .  A
C533       Br540   1.904       .  S
C534        C675   1.398       .  A
C534       Br539   1.853       .  S
C535        C814   1.398   1_545  A
C535        C536   1.399       .  A
C536       Br537   1.904       .  S
C541        C542   1.406   1_556  A
C541        C546   1.461       .  A
C541       Br548   1.923       .  S
C543        C544   1.461       .  A
C543       Br550   1.902       .  S
C544       Br549   1.923       .  S
C545        C546   1.470       .  A
C546       Br547   1.902       .  S
C551        C972   1.404   1_556  A
C551        C556   1.343       .  A
C551       Br558   1.869       .  S
C553        C554   1.343       .  A
C553       Br560   1.927       .  S
C554       Br559   1.869       .  S
C555        C904   1.404   1_556  A
C555        C556   1.404       .  A
C556       Br557   1.927       .  S
In561       O563   2.469       .  S
In561       O704   2.222       .  S
In561       O568   2.324       .  S
In561       O710   2.411       .  S
C562        O568   1.254       .  A
C562        O710   1.265       .  A
C562        C589   1.597       .  S
O563        C711   1.260       .  A
O564        C571   1.272       .  A
C565        O712   1.252       .  A
C565        O566   1.264       .  A
C565        C645   1.595   1_554  S
O566       In981   2.395       .  S
C567        O569   1.257       .  A
C567        C590   1.630       .  S
O569       In841   2.454       .  S
C571        C574   1.632       .  S
O572       In841   2.343       .  S
O573       In981   2.282       .  S
O573        C707   1.272       .  A
C574        C650   1.595   1_554  S
C574        C685   1.688   1_554  S
C574        C692   1.494       .  S
C575        C635   1.595       .  S
C575        C586   1.632       .  S
C575        C612   1.688       .  S
C575        C625   1.494       .  S
In576       O578   2.222       .  S
In576       O721   2.343       .  S
In576       O583   2.282       .  S
In576       O728   2.324       .  S
C577        O583   1.272       .  A
C577        C589   1.630       .  S
O579       In996   2.469       .  S
O579        C586   1.260       .  A
C580        O581   1.252       .  A
C580        C644   1.595       .  S
C582        O584   1.265       .  A
C582       O1008   1.254       .  A
C582        C590   1.597       .  S
O584       In856   2.411       .  S
O585       In996   2.454       .  S
O585        C997   1.257       .  A
C586        O998   1.272       .  A
O587       In856   2.395       .  S
O587       C1000   1.264       .  A
C589        C592   1.686       .  S
C589        C602   1.503       .  S
C590        C595   1.686       .  S
C590        C605   1.503       .  S
C591        C592   1.465       .  A
C591        C596   1.467       .  A
C591       Br598   1.923       .  S
C592        C593   1.418       .  A
C593        C594   1.467       .  A
C593       Br600   1.919       .  S
C594        C595   1.465       .  A
C594       Br599   1.923       .  S
C595        C596   1.418       .  A
C596       Br597   1.919       .  S
C601        C606   1.347       .  A
C601       Br608   1.853       .  S
C602        C741   1.398       .  A
C602        C603   1.399       .  A
C603        C604   1.347       .  A
C603       Br610   1.904       .  S
C604        C745   1.398       .  A
C604       Br609   1.853       .  S
C605        C606   1.399       .  A
C606       Br607   1.904       .  S
C611        C612   1.406       .  A
C611        C616   1.461       .  A
C611       Br618   1.923       .  S
C612        C683   1.470       .  A
C613        C682   1.470       .  A
C613        C614   1.461       .  A
C613       Br620   1.902       .  S
C614        C685   1.406   1_554  A
C614       Br619   1.923       .  S
C615        C644   1.688       .  S
C615        C684   1.406       .  A
C615        C616   1.470       .  A
C616       Br617   1.902       .  S
C621       C1042   1.404       .  A
C621        C626   1.343       .  A
C621       Br628   1.869       .  S
C622        C644   1.494       .  S
C622        C693   1.404       .  A
C623        C692   1.404       .  A
C623        C624   1.343       .  A
C623       Br630   1.927       .  S
C624       Br629   1.869       .  S
C625       C1114   1.404       .  A
C625        C626   1.404       .  A
C626       Br627   1.927       .  S
In631       O633   2.469       .  S
In631       O774   2.222       .  S
In631       O638   2.324       .  S
In631       O780   2.411       .  S
C632        O638   1.254       .  A
C632        O780   1.265       .  A
C632        C659   1.597       .  S
O633        C781   1.260       .  A
O634        C641   1.272       .  A
C635        O782   1.252       .  A
C635        O636   1.264       .  A
O636      In1051   2.395       .  S
C637        O639   1.257       .  A
C637        C660   1.630       .  S
O639       In911   2.454       .  S
C641        C644   1.632       .  S
O642       In911   2.343       .  S
O643      In1051   2.282       .  S
O643        C777   1.272       .  A
C645        C656   1.632       .  S
C645        C682   1.688   1_556  S
C645        C695   1.494       .  S
In646       O648   2.222       .  S
In646       O791   2.343       .  S
In646       O653   2.282       .  S
In646       O798   2.324       .  S
C647        O653   1.272       .  A
C647        C659   1.630       .  S
O649      In1066   2.469       .  S
O649        C656   1.260       .  A
C650        O651   1.252       .  A
C652        O654   1.265       .  A
C652       O1078   1.254       .  A
C652        C660   1.597       .  S
O654       In926   2.411       .  S
O655      In1066   2.454       .  S
O655       C1067   1.257       .  A
C656       O1068   1.272       .  A
O657       In926   2.395       .  S
O657       C1070   1.264       .  A
C659        C662   1.686       .  S
C659        C672   1.503       .  S
C660        C665   1.686       .  S
C660        C675   1.503       .  S
C661        C662   1.465       .  A
C661        C666   1.467       .  A
C661       Br668   1.923       .  S
C662        C663   1.418       .  A
C663        C664   1.467       .  A
C663       Br670   1.919       .  S
C664        C665   1.465       .  A
C664       Br669   1.923       .  S
C665        C666   1.418       .  A
C666       Br667   1.919       .  S
C671        C676   1.347       .  A
C671       Br678   1.853       .  S
C672        C811   1.398       .  A
C672        C673   1.399       .  A
C673        C674   1.347       .  A
C673       Br680   1.904       .  S
C674        C815   1.398       .  A
C674       Br679   1.853       .  S
C675        C676   1.399       .  A
C676       Br677   1.904       .  S
C681        C682   1.406   1_556  A
C681        C686   1.461       .  A
C681       Br688   1.923       .  S
C683        C684   1.461       .  A
C683       Br690   1.902       .  S
C684       Br689   1.923       .  S
C685        C686   1.470       .  A
C686       Br687   1.902       .  S
C691       C1112   1.404   1_556  A
C691        C696   1.343       .  A
C691       Br698   1.869       .  S
C693        C694   1.343       .  A
C693       Br700   1.927       .  S
C694       Br699   1.869       .  S
C695       C1044   1.404   1_556  A
C695        C696   1.404       .  A
C696       Br697   1.927       .  S
In701       O703   2.469   1_565  S
In701       O708   2.324       .  S
C702        O708   1.254       .  A
C702        C729   1.597       .  S
O704        C711   1.272       .  A
C705        O706   1.264       .  A
C705        C785   1.595   1_554  S
O706      In1121   2.395       .  S
C707        O709   1.257       .  A
C707        C730   1.630       .  S
O709       In981   2.454       .  S
C711        C714   1.632       .  S
O712       In981   2.343       .  S
O713      In1121   2.282   1_545  S
C714        C790   1.595   1_554  S
C714        C825   1.688   1_554  S
C714        C832   1.494       .  S
C715        C775   1.595       .  S
C715        C726   1.632       .  S
C715        C752   1.688       .  S
C715        C765   1.494       .  S
In716       O718   2.222       .  S
In716       O723   2.282       .  S
C717        O723   1.272       .  A
C717        C729   1.630       .  S
O719      In1136   2.469       .  S
O719        C726   1.260       .  A
C720        O721   1.252       .  A
C720        C784   1.595       .  S
C722        O724   1.265       .  A
C722       O1148   1.254       .  A
C722        C730   1.597       .  S
O724       In996   2.411       .  S
O725      In1136   2.454       .  S
O725       C1137   1.257       .  A
C726       O1138   1.272       .  A
O727       In996   2.395       .  S
O727       C1140   1.264       .  A
C729        C732   1.686       .  S
C729        C742   1.503       .  S
C730        C735   1.686       .  S
C730        C745   1.503       .  S
C731        C732   1.465       .  A
C731        C736   1.467       .  A
C731       Br738   1.923       .  S
C732        C733   1.418       .  A
C733        C734   1.467       .  A
C733       Br740   1.919       .  S
C734        C735   1.465       .  A
C734       Br739   1.923       .  S
C735        C736   1.418       .  A
C736       Br737   1.919       .  S
C741        C746   1.347       .  A
C741       Br748   1.853       .  S
C742        C743   1.399       .  A
C743        C744   1.347       .  A
C743       Br750   1.904       .  S
C744       Br749   1.853       .  S
C745        C746   1.399       .  A
C746       Br747   1.904       .  S
C751        C752   1.406       .  A
C751        C756   1.461       .  A
C751       Br758   1.923       .  S
C752        C823   1.470       .  A
C753        C822   1.470       .  A
C753        C754   1.461       .  A
C753       Br760   1.902       .  S
C754        C825   1.406   1_554  A
C754       Br759   1.923       .  S
C755        C784   1.688       .  S
C755        C824   1.406       .  A
C755        C756   1.470       .  A
C756       Br757   1.902       .  S
C761       C1182   1.404       .  A
C761        C766   1.343       .  A
C761       Br768   1.869       .  S
C762        C784   1.494       .  S
C762        C833   1.404       .  A
C763        C832   1.404       .  A
C763        C764   1.343       .  A
C763       Br770   1.927       .  S
C764       Br769   1.869       .  S
C765       C1254   1.404       .  A
C765        C766   1.404       .  A
C766       Br767   1.927       .  S
In771       O773   2.469   1_565  S
In771       O778   2.324       .  S
C772        O778   1.254       .  A
C772        C799   1.597       .  S
O774        C781   1.272       .  A
C775        O776   1.264       .  A
O776      In1191   2.395       .  S
C777        O779   1.257       .  A
C777        C800   1.630       .  S
O779      In1051   2.454       .  S
C781        C784   1.632       .  S
O782      In1051   2.343       .  S
O783      In1191   2.282   1_545  S
C785        C796   1.632       .  S
C785        C822   1.688   1_556  S
C785        C835   1.494       .  S
In786       O788   2.222       .  S
In786       O793   2.282       .  S
C787        O793   1.272       .  A
C787        C799   1.630       .  S
O789      In1206   2.469       .  S
O789        C796   1.260       .  A
C790        O791   1.252       .  A
C792        O794   1.265       .  A
C792       O1218   1.254       .  A
C792        C800   1.597       .  S
O794      In1066   2.411       .  S
O795      In1206   2.454       .  S
O795       C1207   1.257       .  A
C796       O1208   1.272       .  A
O797      In1066   2.395       .  S
O797       C1210   1.264       .  A
C799        C802   1.686       .  S
C799        C812   1.503       .  S
C800        C805   1.686       .  S
C800        C815   1.503       .  S
C801        C802   1.465       .  A
C801        C806   1.467       .  A
C801       Br808   1.923       .  S
C802        C803   1.418       .  A
C803        C804   1.467       .  A
C803       Br810   1.919       .  S
C804        C805   1.465       .  A
C804       Br809   1.923       .  S
C805        C806   1.418       .  A
C806       Br807   1.919       .  S
C811        C816   1.347       .  A
C811       Br818   1.853       .  S
C812        C813   1.399       .  A
C813        C814   1.347       .  A
C813       Br820   1.904       .  S
C814       Br819   1.853       .  S
C815        C816   1.399       .  A
C816       Br817   1.904       .  S
C821        C822   1.406   1_556  A
C821        C826   1.461       .  A
C821       Br828   1.923       .  S
C823        C824   1.461       .  A
C823       Br830   1.902       .  S
C824       Br829   1.923       .  S
C825        C826   1.470       .  A
C826       Br827   1.902       .  S
C831       C1252   1.404   1_556  A
C831        C836   1.343       .  A
C831       Br838   1.869       .  S
C833        C834   1.343       .  A
C833       Br840   1.927       .  S
C834       Br839   1.869       .  S
C835       C1184   1.404   1_556  A
C835        C836   1.404       .  A
C836       Br837   1.927       .  S
In841       O843   2.469       .  S
In841       O984   2.222       .  S
In841       O848   2.324       .  S
In841       O990   2.411       .  S
C842        O848   1.254       .  A
C842        O990   1.265       .  A
C842        C869   1.597       .  S
O843        C991   1.260       .  A
O844      In1121   2.222   1_545  S
O844        C851   1.272       .  A
C845        O992   1.252       .  A
C845        O846   1.264       .  A
C845        C925   1.595   1_554  S
C847        O849   1.257       .  A
C847       O1133   1.272       .  A
C847        C870   1.630       .  S
O850      In1121   2.411       .  S
O850       C1122   1.265       .  A
C851       O1123   1.260       .  A
C851        C854   1.632       .  S
O852       C1125   1.252       .  A
O853        C987   1.272       .  A
C854        C930   1.595   1_554  S
C854        C965   1.688   1_554  S
C854        C972   1.494       .  S
C855        C915   1.595       .  S
C855        C866   1.632       .  S
C855        C892   1.688       .  S
C855        C905   1.494       .  S
In856       O858   2.222       .  S
In856      O1001   2.343       .  S
In856       O863   2.282       .  S
In856      O1008   2.324       .  S
C857        O863   1.272       .  A
C857        C869   1.630       .  S
O859        C866   1.260       .  A
C860        O861   1.252       .  A
C860        C924   1.595       .  S
O861      In1136   2.343   1_545  S
C862        O864   1.265       .  A
C862        C870   1.597       .  S
O868      In1136   2.324   1_545  S
C869        C872   1.686       .  S
C869        C882   1.503       .  S
C870        C875   1.686       .  S
C870        C885   1.503       .  S
C871        C872   1.465       .  A
C871        C876   1.467       .  A
C871       Br878   1.923       .  S
C872        C873   1.418       .  A
C873        C874   1.467       .  A
C873       Br880   1.919       .  S
C874        C875   1.465       .  A
C874       Br879   1.923       .  S
C875        C876   1.418       .  A
C876       Br877   1.919       .  S
C881       C1162   1.398   1_545  A
C881        C886   1.347       .  A
C881       Br888   1.853       .  S
C882       C1021   1.398       .  A
C882        C883   1.399       .  A
C883        C884   1.347       .  A
C883       Br890   1.904       .  S
C884       C1025   1.398       .  A
C884       Br889   1.853       .  S
C885       C1164   1.398   1_545  A
C885        C886   1.399       .  A
C886       Br887   1.904       .  S
C891        C892   1.406       .  A
C891        C896   1.461       .  A
C891       Br898   1.923       .  S
C892        C963   1.470       .  A
C893        C962   1.470       .  A
C893        C894   1.461       .  A
C893       Br900   1.902       .  S
C894        C965   1.406   1_554  A
C894       Br899   1.923       .  S
C895        C924   1.688       .  S
C895        C964   1.406       .  A
C895        C896   1.470       .  A
C896       Br897   1.902       .  S
C901        C906   1.343       .  A
C901       Br908   1.869       .  S
C902        C924   1.494       .  S
C902        C973   1.404       .  A
C903        C972   1.404       .  A
C903        C904   1.343       .  A
C903       Br910   1.927       .  S
C904       Br909   1.869       .  S
C905        C906   1.404       .  A
C906       Br907   1.927       .  S
In911       O913   2.469       .  S
In911      O1054   2.222       .  S
In911       O918   2.324       .  S
In911      O1060   2.411       .  S
C912        O918   1.254       .  A
C912       O1060   1.265       .  A
C912        C939   1.597       .  S
O913       C1061   1.260       .  A
O914      In1191   2.222   1_545  S
O914        C921   1.272       .  A
C915       O1062   1.252       .  A
C915        O916   1.264       .  A
C917        O919   1.257       .  A
C917       O1203   1.272       .  A
C917        C940   1.630       .  S
O920      In1191   2.411       .  S
O920       C1192   1.265       .  A
C921       O1193   1.260       .  A
C921        C924   1.632       .  S
O922       C1195   1.252       .  A
O923       C1057   1.272       .  A
C925        C936   1.632       .  S
C925        C962   1.688   1_556  S
C925        C975   1.494       .  S
In926       O928   2.222       .  S
In926      O1071   2.343       .  S
In926       O933   2.282       .  S
In926      O1078   2.324       .  S
C927        O933   1.272       .  A
C927        C939   1.630       .  S
O929        C936   1.260       .  A
C930        O931   1.252       .  A
O931      In1206   2.343   1_545  S
C932        O934   1.265       .  A
C932        C940   1.597       .  S
O938      In1206   2.324   1_545  S
C939        C942   1.686       .  S
C939        C952   1.503       .  S
C940        C945   1.686       .  S
C940        C955   1.503       .  S
C941        C942   1.465       .  A
C941        C946   1.467       .  A
C941       Br948   1.923       .  S
C942        C943   1.418       .  A
C943        C944   1.467       .  A
C943       Br950   1.919       .  S
C944        C945   1.465       .  A
C944       Br949   1.923       .  S
C945        C946   1.418       .  A
C946       Br947   1.919       .  S
C951       C1232   1.398   1_545  A
C951        C956   1.347       .  A
C951       Br958   1.853       .  S
C952       C1091   1.398       .  A
C952        C953   1.399       .  A
C953        C954   1.347       .  A
C953       Br960   1.904       .  S
C954       C1095   1.398       .  A
C954       Br959   1.853       .  S
C955       C1234   1.398   1_545  A
C955        C956   1.399       .  A
C956       Br957   1.904       .  S
C961        C962   1.406   1_556  A
C961        C966   1.461       .  A
C961       Br968   1.923       .  S
C963        C964   1.461       .  A
C963       Br970   1.902       .  S
C964       Br969   1.923       .  S
C965        C966   1.470       .  A
C966       Br967   1.902       .  S
C971        C976   1.343       .  A
C971       Br978   1.869       .  S
C973        C974   1.343       .  A
C973       Br980   1.927       .  S
C974       Br979   1.869       .  S
C975        C976   1.404       .  A
C976       Br977   1.927       .  S
In981       O983   2.469       .  S
In981      O1124   2.222       .  S
In981       O988   2.324       .  S
In981      O1130   2.411       .  S
C982        O988   1.254       .  A
C982       O1130   1.265       .  A
C982       C1009   1.597       .  S
O983       C1131   1.260       .  A
O984        C991   1.272       .  A
C985       O1132   1.252       .  A
C985        O986   1.264       .  A
C985       C1065   1.595   1_554  S
C987        O989   1.257       .  A
C987       C1010   1.630       .  S
C991        C994   1.632       .  S
O993       C1127   1.272       .  A
C994       C1070   1.595   1_554  S
C994       C1105   1.688   1_554  S
C994       C1112   1.494       .  S
C995       C1055   1.595       .  S
C995       C1006   1.632       .  S
C995       C1032   1.688       .  S
C995       C1045   1.494       .  S
In996       O998   2.222       .  S
In996      O1141   2.343       .  S
In996      O1003   2.282       .  S
In996      O1148   2.324       .  S
C997       O1003   1.272       .  A
C997       C1009   1.630       .  S
O999       C1006   1.260       .  A
C1000      O1001   1.252       .  A
C1000      C1064   1.595       .  S
C1002      O1004   1.265       .  A
C1002      C1010   1.597       .  S
C1009      C1012   1.686       .  S
C1009      C1022   1.503       .  S
C1010      C1015   1.686       .  S
C1010      C1025   1.503       .  S
C1011      C1012   1.465       .  A
C1011      C1016   1.467       .  A
C1011     Br1018   1.923       .  S
C1012      C1013   1.418       .  A
C1013      C1014   1.467       .  A
C1013     Br1020   1.919       .  S
C1014      C1015   1.465       .  A
C1014     Br1019   1.923       .  S
C1015      C1016   1.418       .  A
C1016     Br1017   1.919       .  S
C1021      C1026   1.347       .  A
C1021     Br1028   1.853       .  S
C1022      C1161   1.398       .  A
C1022      C1023   1.399       .  A
C1023      C1024   1.347       .  A
C1023     Br1030   1.904       .  S
C1024      C1165   1.398       .  A
C1024     Br1029   1.853       .  S
C1025      C1026   1.399       .  A
C1026     Br1027   1.904       .  S
C1031      C1032   1.406       .  A
C1031      C1036   1.461       .  A
C1031     Br1038   1.923       .  S
C1032      C1103   1.470       .  A
C1033      C1102   1.470       .  A
C1033      C1034   1.461       .  A
C1033     Br1040   1.902       .  S
C1034      C1105   1.406   1_554  A
C1034     Br1039   1.923       .  S
C1035      C1064   1.688       .  S
C1035      C1104   1.406       .  A
C1035      C1036   1.470       .  A
C1036     Br1037   1.902       .  S
C1041      C1046   1.343       .  A
C1041     Br1048   1.869       .  S
C1042      C1064   1.494       .  S
C1042      C1113   1.404       .  A
C1043      C1112   1.404       .  A
C1043      C1044   1.343       .  A
C1043     Br1050   1.927       .  S
C1044     Br1049   1.869       .  S
C1045      C1046   1.404       .  A
C1046     Br1047   1.927       .  S
In1051     O1053   2.469       .  S
In1051     O1194   2.222       .  S
In1051     O1058   2.324       .  S
In1051     O1200   2.411       .  S
C1052      O1058   1.254       .  A
C1052      O1200   1.265       .  A
C1052      C1079   1.597       .  S
O1053      C1201   1.260       .  A
O1054      C1061   1.272       .  A
C1055      O1202   1.252       .  A
C1055      O1056   1.264       .  A
C1057      O1059   1.257       .  A
C1057      C1080   1.630       .  S
C1061      C1064   1.632       .  S
O1063      C1197   1.272       .  A
C1065      C1076   1.632       .  S
C1065      C1102   1.688   1_556  S
C1065      C1115   1.494       .  S
In1066     O1068   2.222       .  S
In1066     O1211   2.343       .  S
In1066     O1073   2.282       .  S
In1066     O1218   2.324       .  S
C1067      O1073   1.272       .  A
C1067      C1079   1.630       .  S
O1069      C1076   1.260       .  A
C1070      O1071   1.252       .  A
C1072      O1074   1.265       .  A
C1072      C1080   1.597       .  S
C1079      C1082   1.686       .  S
C1079      C1092   1.503       .  S
C1080      C1085   1.686       .  S
C1080      C1095   1.503       .  S
C1081      C1082   1.465       .  A
C1081      C1086   1.467       .  A
C1081     Br1088   1.923       .  S
C1082      C1083   1.418       .  A
C1083      C1084   1.467       .  A
C1083     Br1090   1.919       .  S
C1084      C1085   1.465       .  A
C1084     Br1089   1.923       .  S
C1085      C1086   1.418       .  A
C1086     Br1087   1.919       .  S
C1091      C1096   1.347       .  A
C1091     Br1098   1.853       .  S
C1092      C1231   1.398       .  A
C1092      C1093   1.399       .  A
C1093      C1094   1.347       .  A
C1093     Br1100   1.904       .  S
C1094      C1235   1.398       .  A
C1094     Br1099   1.853       .  S
C1095      C1096   1.399       .  A
C1096     Br1097   1.904       .  S
C1101      C1102   1.406   1_556  A
C1101      C1106   1.461       .  A
C1101     Br1108   1.923       .  S
C1103      C1104   1.461       .  A
C1103     Br1110   1.902       .  S
C1104     Br1109   1.923       .  S
C1105      C1106   1.470       .  A
C1106     Br1107   1.902       .  S
C1111      C1116   1.343       .  A
C1111     Br1118   1.869       .  S
C1113      C1114   1.343       .  A
C1113     Br1120   1.927       .  S
C1114     Br1119   1.869       .  S
C1115      C1116   1.404       .  A
C1116     Br1117   1.927       .  S
In1121     O1123   2.469   1_565  S
In1121     O1128   2.324       .  S
C1122      O1128   1.254       .  A
C1122      C1149   1.597       .  S
O1124      C1131   1.272       .  A
C1125      O1126   1.264       .  A
C1125      C1205   1.595   1_554  S
C1127      O1129   1.257       .  A
C1127      C1150   1.630       .  S
C1131      C1134   1.632       .  S
C1134      C1210   1.595   1_554  S
C1134      C1245   1.688   1_554  S
C1134      C1252   1.494       .  S
C1135      C1195   1.595       .  S
C1135      C1146   1.632       .  S
C1135      C1172   1.688       .  S
C1135      C1185   1.494       .  S
In1136     O1138   2.222       .  S
In1136     O1143   2.282       .  S
C1137      O1143   1.272       .  A
C1137      C1149   1.630       .  S
O1139      C1146   1.260       .  A
C1140      O1141   1.252       .  A
C1140      C1204   1.595       .  S
C1142      O1144   1.265       .  A
C1142      C1150   1.597       .  S
C1149      C1152   1.686       .  S
C1149      C1162   1.503       .  S
C1150      C1155   1.686       .  S
C1150      C1165   1.503       .  S
C1151      C1152   1.465       .  A
C1151      C1156   1.467       .  A
C1151     Br1158   1.923       .  S
C1152      C1153   1.418       .  A
C1153      C1154   1.467       .  A
C1153     Br1160   1.919       .  S
C1154      C1155   1.465       .  A
C1154     Br1159   1.923       .  S
C1155      C1156   1.418       .  A
C1156     Br1157   1.919       .  S
C1161      C1166   1.347       .  A
C1161     Br1168   1.853       .  S
C1162      C1163   1.399       .  A
C1163      C1164   1.347       .  A
C1163     Br1170   1.904       .  S
C1164     Br1169   1.853       .  S
C1165      C1166   1.399       .  A
C1166     Br1167   1.904       .  S
C1171      C1172   1.406       .  A
C1171      C1176   1.461       .  A
C1171     Br1178   1.923       .  S
C1172      C1243   1.470       .  A
C1173      C1242   1.470       .  A
C1173      C1174   1.461       .  A
C1173     Br1180   1.902       .  S
C1174      C1245   1.406   1_554  A
C1174     Br1179   1.923       .  S
C1175      C1204   1.688       .  S
C1175      C1244   1.406       .  A
C1175      C1176   1.470       .  A
C1176     Br1177   1.902       .  S
C1181      C1186   1.343       .  A
C1181     Br1188   1.869       .  S
C1182      C1204   1.494       .  S
C1182      C1253   1.404       .  A
C1183      C1252   1.404       .  A
C1183      C1184   1.343       .  A
C1183     Br1190   1.927       .  S
C1184     Br1189   1.869       .  S
C1185      C1186   1.404       .  A
C1186     Br1187   1.927       .  S
In1191     O1193   2.469   1_565  S
In1191     O1198   2.324       .  S
C1192      O1198   1.254       .  A
C1192      C1219   1.597       .  S
O1194      C1201   1.272       .  A
C1195      O1196   1.264       .  A
C1197      O1199   1.257       .  A
C1197      C1220   1.630       .  S
C1201      C1204   1.632       .  S
C1205      C1216   1.632       .  S
C1205      C1242   1.688   1_556  S
C1205      C1255   1.494       .  S
In1206     O1208   2.222       .  S
In1206     O1213   2.282       .  S
C1207      O1213   1.272       .  A
C1207      C1219   1.630       .  S
O1209      C1216   1.260       .  A
C1210      O1211   1.252       .  A
C1212      O1214   1.265       .  A
C1212      C1220   1.597       .  S
C1219      C1222   1.686       .  S
C1219      C1232   1.503       .  S
C1220      C1225   1.686       .  S
C1220      C1235   1.503       .  S
C1221      C1222   1.465       .  A
C1221      C1226   1.467       .  A
C1221     Br1228   1.923       .  S
C1222      C1223   1.418       .  A
C1223      C1224   1.467       .  A
C1223     Br1230   1.919       .  S
C1224      C1225   1.465       .  A
C1224     Br1229   1.923       .  S
C1225      C1226   1.418       .  A
C1226     Br1227   1.919       .  S
C1231      C1236   1.347       .  A
C1231     Br1238   1.853       .  S
C1232      C1233   1.399       .  A
C1233      C1234   1.347       .  A
C1233     Br1240   1.904       .  S
C1234     Br1239   1.853       .  S
C1235      C1236   1.399       .  A
C1236     Br1237   1.904       .  S
C1241      C1242   1.406   1_556  A
C1241      C1246   1.461       .  A
C1241     Br1248   1.923       .  S
C1243      C1244   1.461       .  A
C1243     Br1250   1.902       .  S
C1244     Br1249   1.923       .  S
C1245      C1246   1.470       .  A
C1246     Br1247   1.902       .  S
C1251      C1256   1.343       .  A
C1251     Br1258   1.869       .  S
C1253      C1254   1.343       .  A
C1253     Br1260   1.927       .  S
C1254     Br1259   1.869       .  S
C1255      C1256   1.404       .  A
C1256     Br1257   1.927       .  S
