geometry optimzed in LAMMPS
_audit_creation_date              2020-11-30 
_audit_creation_method            'lammps2cif' 
_symmetry_space_group_name_H-M    'P1' 
_symmetry_Int_Tables_number       1 
_symmetry_cell_setting            triclinic 
loop_ 
_symmetry_equiv_pos_as_xyz 
  x,y,z 
_cell_length_a                    46.25071789 
_cell_length_b                    46.26278499524678 
_cell_length_c                    23.093084835571894 
_cell_angle_alpha                 89.98791937075443 
_cell_angle_beta                  90.01443256369231 
_cell_angle_gamma                 90.01824383014056 
loop_ 
_atom_site_label 
_atom_site_type_symbol 
_atom_site_fract_x 
_atom_site_fract_y 
_atom_site_fract_z 
_atom_site_charge 
C1          C  0.61296109  0.10539222  0.24574584     0.88500
C2          C  0.58084924  0.11339067  0.24095733    -0.51700
C3          C  0.56451506  0.10283605  0.28533795     0.11400
C4          C  0.58165570  0.08537653  0.33033084     0.22400
C5          C  0.62260185  0.11638573  0.30556751    -0.52500
C6          C  0.60605725  0.10575431  0.34980955     0.11500
C7          C  0.61341555  0.07232260  0.25064711    -0.52000
C8          C  0.59703577  0.06190968  0.29495124     0.12100
H9          H  0.57177828  0.12566512  0.20518201     0.16600
H10         H  0.56826249  0.07673027  0.36636548     0.02400
H11         H  0.64090501  0.13071322  0.31234199     0.16900
H12         H  0.62550969  0.05837212  0.22150311     0.16700
C13         C  0.61373805  0.10269536  0.73931942     0.88500
C14         C  0.61446273  0.06967567  0.73402109    -0.51700
C15         C  0.59844262  0.05930705  0.68918588     0.11400
C16         C  0.58312165  0.08274636  0.65363294     0.22400
C17         C  0.62364596  0.11399523  0.67989054    -0.52500
C18         C  0.60743046  0.10342870  0.63509417     0.11500
C19         C  0.58149662  0.11043105  0.74332927    -0.52000
C20         C  0.56553712  0.09990419  0.69830323     0.12100
H21         H  0.62638262  0.05570306  0.76344121     0.16600
H22         H  0.57002919  0.07411769  0.61713110     0.02400
H23         H  0.64174232  0.12865588  0.67381064     0.16900
H24         H  0.57209689  0.12255155  0.77894734     0.16700
C25         C  0.61231523  0.87498388  0.24678679     0.88500
C26         C  0.61309677  0.90801239  0.25216079    -0.51700
C27         C  0.59703861  0.91840940  0.29692200     0.11400
C28         C  0.58164008  0.89494808  0.33237013     0.22400
C29         C  0.62213176  0.86365112  0.30624710    -0.52500
C30         C  0.60591334  0.87421740  0.35101300     0.11500
C31         C  0.58007320  0.86730373  0.24258886    -0.52000
C32         C  0.56406991  0.87784469  0.28750265     0.12100
H33         H  0.62506131  0.92197335  0.22279322     0.16600
H34         H  0.56851868  0.90357531  0.36880707     0.02400
H35         H  0.64022491  0.84900222  0.31238416     0.16900
H36         H  0.57068386  0.85527890  0.20680885     0.16700
C37         C  0.61374541  0.87254489  0.74044446     0.88500
C38         C  0.58159198  0.86465187  0.74504417    -0.51700
C39         C  0.56537234  0.87519798  0.70048661     0.11400
C40         C  0.58263685  0.89257527  0.65560662     0.22400
C41         C  0.62342806  0.86145921  0.68070238    -0.52500
C42         C  0.60695345  0.87209428  0.63633477     0.11500
C43         C  0.61434217  0.90559317  0.73546281    -0.52000
C44         C  0.59806563  0.91599826  0.69101820     0.12100
H45         H  0.57242935  0.85237387  0.78071772     0.16600
H46         H  0.56932277  0.90123738  0.61946350     0.02400
H47         H  0.64162702  0.84699804  0.67409820     0.16900
H48         H  0.62644302  0.91953645  0.76465086     0.16700
C49         C  0.37163140  0.10522102  0.24345217     0.88500
C50         C  0.37099371  0.07218623  0.24874411    -0.51700
C51         C  0.38717842  0.06186971  0.29340380     0.11400
C52         C  0.40259047  0.08535323  0.32866669     0.22400
C53         C  0.36186629  0.11644771  0.30302314    -0.52500
C54         C  0.37826041  0.10589643  0.34757831     0.11500
C55         C  0.40380090  0.11307130  0.23897582    -0.52000
C56         C  0.41994522  0.10260061  0.28372090     0.12100
H57         H  0.35889444  0.05818874  0.21965910     0.16600
H58         H  0.41583252  0.07675671  0.36498135     0.02400
H59         H  0.34364265  0.13090261  0.30939464     0.16900
H60         H  0.41303253  0.12523948  0.20322354     0.16700
C61         C  0.37268822  0.10305315  0.73692834     0.88500
C62         C  0.40485473  0.11110103  0.74066923    -0.51700
C63         C  0.42086102  0.10054065  0.69577758     0.11400
C64         C  0.40336477  0.08308144  0.65136049     0.22400
C65         C  0.36259598  0.11403743  0.67741505    -0.52500
C66         C  0.37882218  0.10348594  0.63266625     0.11500
C67         C  0.37226280  0.06999496  0.73211024    -0.52000
C68         C  0.38833161  0.05959441  0.68736327     0.12100
H69         H  0.41421167  0.12332039  0.77621538     0.16600
H70         H  0.41649059  0.07445687  0.61492646     0.02400
H71         H  0.34436853  0.12851745  0.67124454     0.16900
H72         H  0.36055005  0.05602245  0.76185868     0.16700
C73         C  0.37103789  0.87520486  0.24566329     0.88500
C74         C  0.40330250  0.86762333  0.24129796    -0.51700
C75         C  0.41933246  0.87819242  0.28617695     0.11400
C76         C  0.40178336  0.89523074  0.33108955     0.22400
C77         C  0.36132941  0.86382412  0.30515171    -0.52500
C78         C  0.37760359  0.87443773  0.34981090     0.11500
C79         C  0.37017469  0.90822142  0.25106329    -0.52000
C80         C  0.38626603  0.91862512  0.29577295     0.12100
H81         H  0.41266636  0.85558051  0.20553548     0.16600
H82         H  0.41492853  0.90389384  0.36748352     0.02400
H83         H  0.34328752  0.84911326  0.31138096     0.16900
H84         H  0.35812354  0.92216250  0.22179928     0.16700
C85         C  0.37248084  0.87267876  0.73920126     0.88500
C86         C  0.37235787  0.90575978  0.73455670    -0.51700
C87         C  0.38872301  0.91608753  0.69014909     0.11400
C88         C  0.40374578  0.89253042  0.65439464     0.22400
C89         C  0.36255524  0.86189755  0.67941857    -0.52500
C90         C  0.37908125  0.87243103  0.63506479     0.11500
C91         C  0.40452613  0.86434486  0.74355062    -0.52000
C92         C  0.42084062  0.87482234  0.69905981     0.12100
H93         H  0.36049530  0.91977874  0.76394797     0.16600
H94         H  0.41712129  0.90110622  0.61826506     0.02400
H95         H  0.34410983  0.84774034  0.67276118     0.16900
H96         H  0.41358290  0.85195230  0.77917490     0.16700
In97       In  0.30250785  0.86169291  0.99143677     1.36900
C98         C  0.28920701  0.91765697  0.99005919     0.79600
O99         O  0.30058619  0.86431920  0.08889257    -0.58800
O100        O  0.34098475  0.85492240  0.04960814    -0.49800
C101        C  0.26728427  0.81624964  0.99091754     0.72300
O102        O  0.25818036  0.84188083  0.98902277    -0.44600
C103        C  0.32785803  0.85769150  0.88836839     0.77000
O104        O  0.27014785  0.89829356  0.99456621    -0.56500
O105        O  0.34123497  0.85307784  0.93501747    -0.46600
O106        O  0.31472340  0.90849141  0.98586590    -0.52900
C107        C  0.32715085  0.85949030  0.09566399     0.87100
O108        O  0.29436769  0.81366778  0.99290529    -0.54800
O109        O  0.30137433  0.86333949  0.89405739    -0.58100
In110      In  0.12033563  0.67827004  0.99381500     1.36900
C111        C  0.06454841  0.69200317  0.99325362     0.79600
O112        O  0.11729960  0.67899279  0.89654189    -0.58800
O113        O  0.12941920  0.63963723  0.93721960    -0.49800
C114        C  0.16553880  0.71384266  0.99311669     0.72300
O115        O  0.13982922  0.72275333  0.99355022    -0.44600
C116        C  0.12281806  0.65342298  0.09773897     0.77000
O117        O  0.08410554  0.71097621  0.99397677    -0.56500
O118        O  0.12667240  0.63956337  0.05146601    -0.46600
O119        O  0.07341792  0.66630404  0.99264770    -0.52900
C120        C  0.12371660  0.65271102  0.89072989     0.87100
O121        O  0.16833301  0.68676857  0.99304856    -0.54800
O122        O  0.11860242  0.68010611  0.09132047    -0.58100
In123      In  0.11965130  0.29906807  0.99560619     1.36900
C124        C  0.06380368  0.28560868  0.99469986     0.79600
O125        O  0.11770453  0.29771085  0.09308220    -0.58800
O126        O  0.12602647  0.33806875  0.05252935    -0.49800
C127        C  0.16512205  0.26386330  0.99496681     0.72300
O128        O  0.13946815  0.25475123  0.99540738    -0.44600
C129        C  0.12297842  0.32354513  0.89174959     0.77000
O130        O  0.08324568  0.26652427  0.99588842    -0.56500
O131        O  0.12826866  0.33722053  0.93772962    -0.46600
O132        O  0.07282401  0.31125799  0.99400119    -0.52900
C133        C  0.12192752  0.32443361  0.09903152     0.87100
O134        O  0.16772409  0.29096445  0.99527060    -0.54800
O135        O  0.11691250  0.29724036  0.89850265    -0.58100
In136      In  0.30295404  0.11684708  0.98985519     1.36900
C137        C  0.28943329  0.06091501  0.99147750     0.79600
O138        O  0.30177085  0.11403113  0.89241272    -0.58800
O139        O  0.34172768  0.12428007  0.93273896    -0.49800
C140        C  0.26772527  0.16231785  0.98978475     0.72300
O141        O  0.25865393  0.13667317  0.98794609    -0.44600
C142        C  0.32779042  0.12028994  0.09347179     0.77000
O143        O  0.27035734  0.08037381  0.99073478    -0.56500
O144        O  0.34159341  0.12425840  0.04711779    -0.46600
O145        O  0.31507542  0.06996729  0.99172385    -0.52900
C146        C  0.32831934  0.11922024  0.88635851     0.87100
O147        O  0.29482482  0.16493881  0.99117562    -0.54800
O148        O  0.30117613  0.11549638  0.08720943    -0.58100
In149      In  0.86577753  0.67870433  0.99092269     1.36900
C150        C  0.92158358  0.69243694  0.99187895     0.79600
O151        O  0.86876856  0.68057738  0.08802252    -0.58800
O152        O  0.85711685  0.64063836  0.04899384    -0.49800
C153        C  0.82016870  0.71376366  0.99120140     0.72300
O154        O  0.84578632  0.72295019  0.98972638    -0.44600
C155        C  0.86332764  0.65305144  0.88781695     0.77000
O156        O  0.90204927  0.71143282  0.99122076    -0.56500
O157        O  0.85961115  0.63949227  0.93452660    -0.46600
O158        O  0.91267741  0.66674620  0.99186485    -0.52900
C159        C  0.86258679  0.65430472  0.09489534     0.87100
O160        O  0.81767181  0.68665777  0.99217105    -0.54800
O161        O  0.86733275  0.67982577  0.89340949    -0.58100
In162      In  0.68228978  0.86084366  0.99395513     1.36900
C163        C  0.69572484  0.91678985  0.99204762     0.79600
O164        O  0.68407715  0.86267687  0.89668700    -0.58800
O165        O  0.64386793  0.85269041  0.93649502    -0.49800
C166        C  0.71749398  0.81529481  0.99426581     0.72300
O167        O  0.72659869  0.84094282  0.99432338    -0.44600
C168        C  0.65677999  0.85888628  0.09737049     0.77000
O169        O  0.71481686  0.89737582  0.99460785    -0.56500
O170        O  0.64343023  0.85367048  0.05098982    -0.46600
O171        O  0.67011148  0.90768244  0.99025879    -0.52900
C172        C  0.65759361  0.85726181  0.89026435     0.87100
O173        O  0.69038616  0.81271465  0.99439283    -0.54800
O174        O  0.68332400  0.86412144  0.09135759    -0.58100
In175      In  0.86497530  0.29926494  0.99333418     1.36900
C176        C  0.92079282  0.28568084  0.99404156     0.79600
O177        O  0.86631169  0.29733726  0.89572821    -0.58800
O178        O  0.85906953  0.33801100  0.93565792    -0.49800
C179        C  0.81985099  0.26366401  0.99364535     0.72300
O180        O  0.84556838  0.25476458  0.99394607    -0.44600
C181        C  0.86112130  0.32491304  0.09628773     0.77000
O182        O  0.90130317  0.26664134  0.99320706    -0.56500
O183        O  0.85558247  0.33791524  0.04964538    -0.46600
O184        O  0.91183780  0.31134332  0.99471804    -0.52900
C185        C  0.86249866  0.32408740  0.88933345     0.87100
O186        O  0.81701837  0.29073488  0.99337683    -0.54800
O187        O  0.86764182  0.29864266  0.09069555    -0.58100
In188      In  0.68265544  0.11605990  0.99329990     1.36900
C189        C  0.69584283  0.06008472  0.99420806     0.79600
O190        O  0.68387567  0.11409734  0.09066126    -0.58800
O191        O  0.64415109  0.12516048  0.05002376    -0.49800
C192        C  0.71804696  0.16136595  0.99337589     0.72300
O193        O  0.72706578  0.13570589  0.99512822    -0.44600
C194        C  0.65772937  0.11820722  0.88934235     0.77000
O195        O  0.71494843  0.07942275  0.99003671    -0.56500
O196        O  0.64403906  0.12289649  0.93552087    -0.46600
O197        O  0.67033933  0.06928621  0.99850232    -0.52900
C198        C  0.65750909  0.12021710  0.09655283     0.87100
O199        O  0.69097277  0.16404678  0.99169050    -0.54800
O200        O  0.68428874  0.11326749  0.89585947    -0.58100
C201        C  0.10576071  0.36854770  0.24868467     0.88500
C202        C  0.11381926  0.40069046  0.24486468    -0.51700
C203        C  0.10334701  0.41669898  0.28980822     0.11400
C204        C  0.08594330  0.39923676  0.33434968     0.22400
C205        C  0.11684141  0.35845757  0.30812210    -0.52500
C206        C  0.10634540  0.37468617  0.35290772     0.11500
C207        C  0.07269057  0.36812690  0.25373802    -0.52000
C208        C  0.06237908  0.38420306  0.29857542     0.12100
H209        H  0.12602139  0.41002731  0.20926965     0.16600
H210        H  0.07739281  0.41236875  0.37084422     0.02400
H211        H  0.13128084  0.34019538  0.31423028     0.16900
H212        H  0.05865810  0.35637878  0.22415508     0.16700
C213        C  0.10772601  0.36733431  0.74201727     0.88500
C214        C  0.07465889  0.36695467  0.73707666    -0.51700
C215        C  0.06436183  0.38331520  0.69264959     0.11400
C216        C  0.08787936  0.39860303  0.65728460     0.22400
C217        C  0.11872341  0.35760111  0.68228120    -0.52500
C218        C  0.10817521  0.37415058  0.63798383     0.11500
C219        C  0.11584265  0.39941545  0.74669152    -0.52000
C220        C  0.10537770  0.41571830  0.70219684     0.12100
H221        H  0.06064009  0.35488475  0.76616919     0.16600
H222        H  0.07929959  0.41198119  0.62115794     0.02400
H223        H  0.13302262  0.33928362  0.67561149     0.16900
H224        H  0.12819703  0.40847424  0.78237187     0.16700
C225        C  0.87571422  0.36941868  0.24598142     0.88500
C226        C  0.90876415  0.36899292  0.25155675    -0.51700
C227        C  0.91893396  0.38512582  0.29644803     0.11400
C228        C  0.89525967  0.40026450  0.33170653     0.22400
C229        C  0.86443596  0.35942145  0.30536625    -0.52500
C230        C  0.87481878  0.37572918  0.35019832     0.11500
C231        C  0.86768413  0.40153713  0.24179843    -0.52000
C232        C  0.87798651  0.41763192  0.28677014     0.12100
H233        H  0.92288500  0.35710108  0.22240562     0.16600
H234        H  0.90370832  0.41345996  0.36822042     0.02400
H235        H  0.85009627  0.34107003  0.31143217     0.16900
H236        H  0.85559486  0.41079651  0.20596589     0.16700
C237        C  0.87782495  0.36801541  0.73923314     0.88500
C238        C  0.87017963  0.40027194  0.74331303    -0.51700
C239        C  0.88065527  0.41620030  0.69819265     0.11400
C240        C  0.89765564  0.39856775  0.65335744     0.22400
C241        C  0.86637196  0.35812461  0.67993413    -0.52500
C242        C  0.87687301  0.37429703  0.63503964     0.11500
C243        C  0.91083673  0.36721648  0.73364490    -0.52000
C244        C  0.92114095  0.38321187  0.68872131     0.12100
H245        H  0.85820088  0.40970795  0.77908581     0.16600
H246        H  0.90623798  0.41162808  0.61677021     0.02400
H247        H  0.85168014  0.34004418  0.67399649     0.16900
H248        H  0.92485523  0.35529655  0.76298217     0.16700
C249        C  0.10722075  0.60956467  0.24769278     0.88500
C250        C  0.07420505  0.61050364  0.25324067    -0.51700
C251        C  0.06382119  0.59445271  0.29802043     0.11400
C252        C  0.08723292  0.57893415  0.33328704     0.22400
C253        C  0.11870347  0.61928944  0.30707760    -0.52500
C254        C  0.10811337  0.60307983  0.35183495     0.11500
C255        C  0.11472064  0.57729349  0.24334848    -0.52000
C256        C  0.10416019  0.56132664  0.28831052     0.12100
H257        H  0.06024598  0.62251916  0.22394604     0.16600
H258        H  0.07858510  0.56583004  0.36974927     0.02400
H259        H  0.13346595  0.63729886  0.31317264     0.16900
H260        H  0.12665903  0.56787438  0.20750052     0.16700
C261        C  0.10867422  0.60837490  0.74094274     0.88500
C262        C  0.11666074  0.57625964  0.74531971    -0.51700
C263        C  0.10643279  0.56014042  0.70033601     0.11400
C264        C  0.08927125  0.57746377  0.65519145     0.22400
C265        C  0.12008030  0.61829995  0.68160127    -0.52500
C266        C  0.10977186  0.60195349  0.63675537     0.11500
C267        C  0.07562908  0.60882420  0.73511720    -0.52000
C268        C  0.06554034  0.59264561  0.69020134     0.12100
H269        H  0.12866957  0.56701919  0.78128245     0.16600
H270        H  0.08088828  0.56422913  0.61867311     0.02400
H271        H  0.13446761  0.63661605  0.67557649     0.16900
H272        H  0.06145920  0.62073060  0.76414584     0.16700
C273        C  0.87748324  0.61045575  0.24484751     0.88500
C274        C  0.86909061  0.57843208  0.24031882    -0.51700
C275        C  0.87932474  0.56209761  0.28500112     0.11400
C276        C  0.89689204  0.57914144  0.32993601     0.22400
C277        C  0.86646137  0.62037986  0.30443460    -0.52500
C278        C  0.87676727  0.60380536  0.34891951     0.11500
C279        C  0.91053530  0.61054847  0.25003997    -0.52000
C280        C  0.92061115  0.59416942  0.29463539     0.12100
H281        H  0.85674054  0.56942735  0.20458080     0.16600
H282        H  0.90528894  0.56575142  0.36621603     0.02400
H283        H  0.85230685  0.63883051  0.31087384     0.16900
H284        H  0.92471229  0.62245446  0.22098289     0.16700
C285        C  0.87894318  0.60887531  0.73803442     0.88500
C286        C  0.91200487  0.60915413  0.73283166    -0.51700
C287        C  0.92218294  0.59319392  0.68771479     0.11400
C288        C  0.89850764  0.57839034  0.65185648     0.22400
C289        C  0.86784442  0.61923161  0.67880260    -0.52500
C290        C  0.87820529  0.60310962  0.63374543     0.11500
C291        C  0.87073398  0.57675763  0.74146040    -0.52000
C292        C  0.88108362  0.56084687  0.69625428     0.12100
H293        H  0.92612956  0.62074592  0.76248973     0.16600
H294        H  0.90695673  0.56535062  0.61513690     0.02400
H295        H  0.85350311  0.63759774  0.67302047     0.16900
H296        H  0.85856712  0.56735434  0.77703146     0.16700
C297        C  0.87165775  0.60893161  0.57379494    -0.16500
C298        C  0.86872182  0.61141612  0.52213454     0.07600
C299        C  0.86830827  0.61154098  0.46096159     0.09400
C300        C  0.87063427  0.60930529  0.40913999    -0.17300
C301        C  0.03507080  0.58992739  0.67814262    -0.16500
C302        C  0.00916757  0.58880830  0.67266074     0.07600
C303        C  0.97863596  0.58890690  0.67200471     0.09400
C304        C  0.95269697  0.59021660  0.67647963    -0.17300
C305        C  0.03330990  0.59178096  0.30908923    -0.16500
C306        C  0.00738337  0.59055031  0.31327700     0.07600
C307        C  0.97690214  0.59038224  0.31225724     0.09400
C308        C  0.95103555  0.59141705  0.30659362    -0.17300
C309        C  0.11496043  0.60829310  0.41189793    -0.16500
C310        C  0.11804684  0.61032045  0.46362140     0.07600
C311        C  0.11852653  0.61005262  0.52482866     0.09400
C312        C  0.11614257  0.60759879  0.57662945    -0.17300
C313        C  0.87772412  0.44721250  0.69492297    -0.16500
C314        C  0.87663555  0.47325333  0.69299477     0.07600
C315        C  0.87671220  0.50380748  0.69221150     0.09400
C316        C  0.87794762  0.52985445  0.69312800    -0.17300
C317        C  0.87551149  0.53118941  0.28778247    -0.16500
C318        C  0.87378651  0.50518734  0.28931072     0.07600
C319        C  0.87350313  0.47465071  0.29001859     0.09400
C320        C  0.87474447  0.44861138  0.28938688    -0.17300
C321        C  0.86861388  0.36996010  0.41034219    -0.16500
C322        C  0.86632518  0.36737470  0.46213083     0.07600
C323        C  0.86686594  0.36698409  0.52332546     0.09400
C324        C  0.86998780  0.36898644  0.57503852    -0.17300
C325        C  0.95164085  0.38586246  0.67753066    -0.16500
C326        C  0.97757995  0.38695143  0.67353628     0.07600
C327        C  0.00805557  0.38694264  0.67496194     0.09400
C328        C  0.03390728  0.38587585  0.68084912    -0.17300
C329        C  0.10897609  0.44663508  0.69951482    -0.16500
C330        C  0.11060989  0.47263165  0.69802767     0.07600
C331        C  0.11087229  0.50314847  0.69730635     0.09400
C332        C  0.10964715  0.52917633  0.69786835    -0.17300
C333        C  0.03183321  0.38714882  0.30955931    -0.16500
C334        C  0.00589248  0.38850457  0.31401789     0.07600
C335        C  0.97535573  0.38872855  0.31356754     0.09400
C336        C  0.94943220  0.38774413  0.30832813    -0.17300
C337        C  0.10647605  0.44768616  0.29271420    -0.16500
C338        C  0.10775444  0.47372389  0.29360857     0.07600
C339        C  0.10791563  0.50426575  0.29296139     0.09400
C340        C  0.10693013  0.53030631  0.29126140    -0.17300
C341        C  0.11418506  0.36878260  0.57766881    -0.16500
C342        C  0.11638629  0.36662354  0.52581221     0.07600
C343        C  0.11586272  0.36675199  0.46464020     0.09400
C344        C  0.11288542  0.36912575  0.41296589    -0.17300
C345        C  0.86779815  0.35095295  0.78907904    -0.11300
C346        C  0.86354515  0.33800651  0.83368798    -0.12800
C347        C  0.86579547  0.35232654  0.19607052    -0.11300
C348        C  0.86167524  0.33936353  0.15142504    -0.12800
C349        C  0.79562114  0.24424345  0.99347471    -0.16500
C350        C  0.77616424  0.22688051  0.99327018     0.07600
C351        C  0.75460724  0.20523810  0.99317283     0.09400
C352        C  0.73733798  0.18569854  0.99324030    -0.17300
C353        C  0.70226324  0.02967752  0.99355410    -0.16500
C354        C  0.70490615  0.00372019  0.99271676     0.07600
C355        C  0.70492196  0.97314157  0.99190724     0.09400
C356        C  0.70226876  0.94717950  0.99165139    -0.17300
C357        C  0.86895595  0.62582725  0.78803868    -0.11300
C358        C  0.86453564  0.63875890  0.83258257    -0.12800
C359        C  0.86337810  0.64054493  0.15060686    -0.11300
C360        C  0.86759250  0.62776375  0.19535570    -0.12800
C361        C  0.79569546  0.73292566  0.99189287    -0.16500
C362        C  0.77603963  0.75008657  0.99258143     0.07600
C363        C  0.75421356  0.77150123  0.99333347     0.09400
C364        C  0.73676850  0.79090633  0.99388434    -0.17300
C365        C  0.12220400  0.33731937  0.83606819    -0.11300
C366        C  0.11787198  0.35006812  0.79133840    -0.12800
C367        C  0.12051472  0.33860888  0.15438985    -0.11300
C368        C  0.11591398  0.35150727  0.19891239    -0.12800
C369        C  0.95109670  0.27900002  0.99410347    -0.16500
C370        C  0.97701783  0.27623684  0.99409267     0.07600
C371        C  0.00755274  0.27624057  0.99413620     0.09400
C372        C  0.03347860  0.27898830  0.99430150    -0.17300
C373        C  0.18952570  0.24463113  0.99399031    -0.16500
C374        C  0.20914692  0.22744486  0.99293482     0.07600
C375        C  0.23095841  0.20603790  0.99163150     0.09400
C376        C  0.24841671  0.18665969  0.99059692    -0.17300
C377        C  0.12287655  0.63833878  0.83553454    -0.11300
C378        C  0.11858283  0.62545818  0.79086436    -0.12800
C379        C  0.12171888  0.63950745  0.15335241    -0.11300
C380        C  0.11736442  0.62662266  0.19797361    -0.12800
C381        C  0.95188695  0.69918094  0.99256708    -0.16500
C382        C  0.97781868  0.70190158  0.99297203     0.07600
C383        C  0.00835892  0.70174439  0.99317479     0.09400
C384        C  0.03426545  0.69881217  0.99320862    -0.17300
C385        C  0.28272887  0.94805287  0.99018200    -0.16500
C386        C  0.28008684  0.97401157  0.99062309     0.07600
C387        C  0.28012114  0.00458837  0.99125177     0.09400
C388        C  0.28283281  0.03054182  0.99161767    -0.17300
C389        C  0.18979366  0.73325513  0.99265510    -0.16500
C390        C  0.20926089  0.75061800  0.99213112     0.07600
C391        C  0.23081993  0.77227488  0.99146482     0.09400
C392        C  0.24806409  0.79184583  0.99104447    -0.17300
C393        C  0.35515832  0.86255888  0.78858830    -0.11300
C394        C  0.34213845  0.85829310  0.83309087    -0.12800
C395        C  0.37346486  0.86655561  0.57472491    -0.16500
C396        C  0.37092946  0.86432205  0.52291276     0.07600
C397        C  0.37052286  0.86474406  0.46170806     0.09400
C398        C  0.37244289  0.86770762  0.40994115    -0.17300
C399        C  0.35390619  0.86504854  0.19600249    -0.11300
C400        C  0.34100312  0.86067421  0.15138018    -0.12800
C401        C  0.39162771  0.94662151  0.67904817    -0.16500
C402        C  0.39279229  0.97253641  0.67395190     0.07600
C403        C  0.39268604  0.00306164  0.67307113     0.09400
C404        C  0.39135593  0.02902009  0.67691843    -0.17300
C405        C  0.34260526  0.11781419  0.83108574    -0.11300
C406        C  0.35561027  0.11324125  0.78665613    -0.12800
C407        C  0.38950691  0.03140710  0.30529591    -0.16500
C408        C  0.39030347  0.00552492  0.31075028     0.07600
C409        C  0.39002636  0.97504518  0.31142202     0.09400
C410        C  0.38883314  0.94913120  0.30697352    -0.17300
C411        C  0.37287010  0.11209067  0.40784575    -0.16500
C412        C  0.37078823  0.11421965  0.45974873     0.07600
C413        C  0.37100308  0.11340523  0.52094494     0.09400
C414        C  0.37337210  0.11016553  0.57258258    -0.17300
C415        C  0.34170565  0.11956753  0.14907947    -0.11300
C416        C  0.35449752  0.11532099  0.19383420    -0.12800
C417        C  0.53441508  0.87176887  0.69772824    -0.16500
C418        C  0.50839359  0.87024736  0.69638977     0.07600
C419        C  0.47785080  0.87009782  0.69599471     0.09400
C420        C  0.45181206  0.87142311  0.69671852    -0.17300
C421        C  0.63093033  0.86233887  0.78990091    -0.11300
C422        C  0.64370302  0.85801009  0.83464261    -0.12800
C423        C  0.45035280  0.87520610  0.28920762    -0.16500
C424        C  0.47640065  0.87399637  0.29081571     0.07600
C425        C  0.50696616  0.87390570  0.29124045     0.09400
C426        C  0.53302867  0.87497742  0.29024768    -0.17300
C427        C  0.61129386  0.86748574  0.41112517    -0.16500
C428        C  0.61370029  0.86435360  0.46279966     0.07600
C429        C  0.61406339  0.86370406  0.52403028     0.09400
C430        C  0.61215340  0.86591352  0.57596460    -0.17300
C431        C  0.62941046  0.86483461  0.19703355    -0.11300
C432        C  0.64244668  0.86032375  0.15260588    -0.12800
C433        C  0.45188691  0.10350974  0.69294428    -0.16500
C434        C  0.47794974  0.10456077  0.69210560     0.07600
C435        C  0.50851062  0.10437857  0.69289401     0.09400
C436        C  0.53454551  0.10305734  0.69486986    -0.17300
C437        C  0.59581809  0.02879601  0.67805563    -0.16500
C438        C  0.59468605  0.00287245  0.67370801     0.07600
C439        C  0.59458120  0.97238679  0.67436559     0.09400
C440        C  0.59555995  0.94649615  0.67959296    -0.17300
C441        C  0.63081135  0.11277837  0.78912606    -0.11300
C442        C  0.64374290  0.11706444  0.83375312    -0.12800
C443        C  0.53352568  0.10609540  0.28748365    -0.16500
C444        C  0.50748641  0.10741175  0.28816503     0.07600
C445        C  0.47694318  0.10733715  0.28781675     0.09400
C446        C  0.45091518  0.10591575  0.28651874    -0.17300
C447        C  0.59440722  0.03136931  0.30626773    -0.16500
C448        C  0.59332545  0.00545395  0.31143979     0.07600
C449        C  0.59331688  0.97492654  0.31214893     0.09400
C450        C  0.59439864  0.94897021  0.30793593    -0.17300
C451        C  0.61152729  0.11165336  0.41019983    -0.16500
C452        C  0.61403912  0.11381443  0.46203389     0.07600
C453        C  0.61451422  0.11327235  0.52324202     0.09400
C454        C  0.61264610  0.11022100  0.57500179    -0.17300
C455        C  0.64330395  0.11977538  0.15190604    -0.11300
C456        C  0.63030192  0.11557784  0.19644979    -0.12800
loop_ 
_geom_bond_atom_site_label_1 
_geom_bond_atom_site_label_2 
_geom_bond_distance 
_geom_bond_site_symmetry_2 
_ccdc_geom_bond_type 
C1            C2   1.535       .  S
C1            C7   1.534       .  S
C1            C5   1.538       .  S
C1          C456   1.470       .  S
C2            H9   1.087       .  S
C2            C3   1.364       .  D
C3            C4   1.536       .  S
C3          C443   1.442       .  S
C4            C8   1.534       .  S
C4            C6   1.538       .  S
C4           H10   1.112       .  S
C5           H11   1.086       .  S
C5            C6   1.368       .  D
C6          C451   1.443       .  S
C7           H12   1.088       .  S
C7            C8   1.361       .  D
C8          C447   1.442       .  S
C13          C14   1.533       .  S
C13          C19   1.536       .  S
C13          C17   1.538       .  S
C13         C441   1.471       .  S
C14          H21   1.088       .  S
C14          C15   1.360       .  D
C15          C16   1.534       .  S
C15         C437   1.440       .  S
C16          C20   1.535       .  S
C16          C18   1.537       .  S
C16          H22   1.112       .  S
C17          H23   1.086       .  S
C17          C18   1.368       .  D
C18         C454   1.443       .  S
C19          H24   1.087       .  S
C19          C20   1.365       .  D
C20         C436   1.443       .  S
C25          C26   1.533       .  S
C25          C31   1.536       .  S
C25          C29   1.538       .  S
C25         C431   1.472       .  S
C26          H33   1.088       .  S
C26          C27   1.361       .  D
C27          C28   1.535       .  S
C27         C450   1.442       .  S
C28          C32   1.536       .  S
C28          C30   1.538       .  S
C28          H34   1.112       .  S
C29          H35   1.086       .  S
C29          C30   1.368       .  D
C30         C427   1.444       .  S
C31          H36   1.087       .  S
C31          C32   1.365       .  D
C32         C426   1.443       .  S
C37          C38   1.535       .  S
C37          C43   1.533       .  S
C37          C41   1.539       .  S
C37         C421   1.469       .  S
C38          H45   1.087       .  S
C38          C39   1.364       .  D
C39          C40   1.535       .  S
C39         C417   1.442       .  S
C40          C44   1.534       .  S
C40          C42   1.537       .  S
C40          H46   1.112       .  S
C41          H47   1.086       .  S
C41          C42   1.368       .  D
C42         C430   1.443       .  S
C43          H48   1.088       .  S
C43          C44   1.361       .  D
C44         C440   1.440       .  S
C49          C50   1.533       .  S
C49          C55   1.535       .  S
C49          C53   1.539       .  S
C49         C416   1.469       .  S
C50          H57   1.088       .  S
C50          C51   1.361       .  D
C51          C52   1.533       .  S
C51         C407   1.440       .  S
C52          C56   1.536       .  S
C52          C54   1.537       .  S
C52          H58   1.112       .  S
C53          H59   1.086       .  S
C53          C54   1.368       .  D
C54         C411   1.443       .  S
C55          H60   1.087       .  S
C55          C56   1.364       .  D
C56         C446   1.442       .  S
C61          C62   1.536       .  S
C61          C67   1.534       .  S
C61          C65   1.538       .  S
C61         C406   1.472       .  S
C62          H69   1.087       .  S
C62          C63   1.365       .  D
C63          C64   1.536       .  S
C63         C433   1.443       .  S
C64          C68   1.535       .  S
C64          C66   1.538       .  S
C64          H70   1.112       .  S
C65          H71   1.086       .  S
C65          C66   1.368       .  D
C66         C414   1.444       .  S
C67          H72   1.088       .  S
C67          C68   1.361       .  D
C68         C404   1.442       .  S
C73          C74   1.536       .  S
C73          C79   1.533       .  S
C73          C77   1.538       .  S
C73         C399   1.471       .  S
C74          H81   1.087       .  S
C74          C75   1.365       .  D
C75          C76   1.535       .  S
C75         C423   1.443       .  S
C76          C80   1.533       .  S
C76          C78   1.537       .  S
C76          H82   1.112       .  S
C77          H83   1.086       .  S
C77          C78   1.368       .  D
C78         C398   1.443       .  S
C79          H84   1.088       .  S
C79          C80   1.361       .  D
C80         C410   1.440       .  S
C85          C86   1.534       .  S
C85          C91   1.535       .  S
C85          C89   1.538       .  S
C85         C393   1.470       .  S
C86          H93   1.088       .  S
C86          C87   1.361       .  D
C87          C88   1.534       .  S
C87         C401   1.442       .  S
C88          C92   1.536       .  S
C88          C90   1.538       .  S
C88          H94   1.112       .  S
C89          H95   1.086       .  S
C89          C90   1.368       .  D
C90         C395   1.443       .  S
C91          H96   1.087       .  S
C91          C92   1.364       .  D
C92         C420   1.442       .  S
In97         O99   2.256   1_556  S
In97        O100   2.251   1_556  S
In97        O108   2.254       .  S
In97        O102   2.246       .  S
In97        O104   2.261       .  S
In97        O105   2.251       .  S
In97        O106   2.241       .  S
In97        O109   2.251       .  S
C98         O104   1.261       .  A
C98         O106   1.258       .  A
C98         C385   1.438       .  S
O99         C107   1.259       .  A
O100        C107   1.259       .  A
C101        O108   1.259       .  A
C101        O102   1.259       .  A
C101        C392   1.437       .  S
C103        O105   1.260       .  A
C103        O109   1.259       .  A
C103        C394   1.438       .  S
C107        C400   1.438       .  S
In110       O112   2.251       .  S
In110       O113   2.254       .  S
In110       O121   2.254       .  S
In110       O115   2.246       .  S
In110       O117   2.258       .  S
In110       O118   2.250   1_556  S
In110       O119   2.239       .  S
In110       O122   2.255   1_556  S
C111        O117   1.260       .  A
C111        O119   1.258       .  A
C111        C384   1.436       .  S
O112        C120   1.259       .  A
O113        C120   1.260       .  A
C114        O121   1.259       .  A
C114        O115   1.259       .  A
C114        C389   1.437       .  S
C116        O118   1.259       .  A
C116        O122   1.259       .  A
C116        C379   1.437       .  S
C120        C377   1.438       .  S
In123       O125   2.254   1_556  S
In123       O126   2.252   1_556  S
In123       O134   2.255       .  S
In123       O128   2.246       .  S
In123       O130   2.258       .  S
In123       O131   2.249       .  S
In123       O132   2.238       .  S
In123       O135   2.248       .  S
C124        O130   1.261       .  A
C124        O132   1.258       .  A
C124        C372   1.436       .  S
O125        C133   1.259       .  A
O126        C133   1.260       .  A
C127        O134   1.260       .  A
C127        O128   1.259       .  A
C127        C373   1.438       .  S
C129        O131   1.260       .  A
C129        O135   1.258       .  A
C129        C365   1.435       .  S
C133        C367   1.438       .  S
In136       O138   2.255       .  S
In136       O139   2.253       .  S
In136       O147   2.257       .  S
In136       O141   2.246       .  S
In136       O143   2.262       .  S
In136       O144   2.249   1_556  S
In136       O145   2.241       .  S
In136       O148   2.251   1_556  S
C137        O143   1.261       .  A
C137        O145   1.258       .  A
C137        C388   1.438       .  S
O138        C146   1.259       .  A
O139        C146   1.259       .  A
C140        O147   1.260       .  A
C140        O141   1.259       .  A
C140        C376   1.438       .  S
C142        O144   1.260       .  A
C142        O148   1.259       .  A
C142        C415   1.437       .  S
C146        C405   1.439       .  S
In149       O151   2.248   1_556  S
In149       O152   2.249   1_556  S
In149       O160   2.255       .  S
In149       O154   2.247       .  S
In149       O156   2.259       .  S
In149       O157   2.251       .  S
In149       O158   2.239       .  S
In149       O161   2.254       .  S
C150        O156   1.261       .  A
C150        O158   1.258       .  A
C150        C381   1.436       .  S
O151        C159   1.259       .  A
O152        C159   1.260       .  A
C153        O160   1.259       .  A
C153        O154   1.259       .  A
C153        C361   1.438       .  S
C155        O157   1.259       .  A
C155        O161   1.259       .  A
C155        C358   1.438       .  S
C159        C359   1.436       .  S
In162       O164   2.249       .  S
In162       O165   2.249       .  S
In162       O173   2.258       .  S
In162       O167   2.247       .  S
In162       O169   2.262       .  S
In162       O170   2.253   1_556  S
In162       O171   2.241       .  S
In162       O174   2.255   1_556  S
C163        O169   1.261       .  A
C163        O171   1.258       .  A
C163        C356   1.438       .  S
O164        C172   1.259       .  A
O165        C172   1.260       .  A
C166        O173   1.259       .  A
C166        O167   1.259       .  A
C166        C364   1.438       .  S
C168        O170   1.259       .  A
C168        O174   1.259       .  A
C168        C432   1.439       .  S
C172        C422   1.436       .  S
In175       O177   2.257       .  S
In175       O178   2.250       .  S
In175       O186   2.253       .  S
In175       O180   2.246       .  S
In175       O182   2.259       .  S
In175       O183   2.254   1_556  S
In175       O184   2.238       .  S
In175       O187   2.252   1_556  S
C176        O182   1.260       .  A
C176        O184   1.258       .  A
C176        C369   1.435       .  S
O177        C185   1.259       .  A
O178        C185   1.259       .  A
C179        O186   1.259       .  A
C179        O180   1.259       .  A
C179        C349   1.436       .  S
C181        O183   1.260       .  A
C181        O187   1.259       .  A
C181        C348   1.438       .  S
C185        C346   1.438       .  S
In188       O190   2.251   1_556  S
In188       O191   2.251   1_556  S
In188       O199   2.253       .  S
In188       O193   2.246       .  S
In188       O195   2.261       .  S
In188       O196   2.252       .  S
In188       O197   2.241       .  S
In188       O200   2.255       .  S
C189        O195   1.261       .  A
C189        O197   1.258       .  A
C189        C353   1.438       .  S
O190        C198   1.259       .  A
O191        C198   1.260       .  A
C192        O199   1.259       .  A
C192        O193   1.259       .  A
C192        C352   1.436       .  S
C194        O196   1.259       .  A
C194        O200   1.259       .  A
C194        C442   1.438       .  S
C198        C455   1.438       .  S
C201        C202   1.535       .  S
C201        C207   1.534       .  S
C201        C205   1.538       .  S
C201        C368   1.471       .  S
C202        H209   1.087       .  S
C202        C203   1.364       .  D
C203        C204   1.536       .  S
C203        C337   1.442       .  S
C204        C208   1.534       .  S
C204        C206   1.538       .  S
C204        H210   1.112       .  S
C205        H211   1.086       .  S
C205        C206   1.367       .  D
C206        C344   1.443       .  S
C207        H212   1.088       .  S
C207        C208   1.361       .  D
C208        C333   1.442       .  S
C213        C214   1.534       .  S
C213        C219   1.535       .  S
C213        C217   1.538       .  S
C213        C366   1.468       .  S
C214        H221   1.088       .  S
C214        C215   1.361       .  D
C215        C216   1.533       .  S
C215        C328   1.440       .  S
C216        C220   1.535       .  S
C216        C218   1.536       .  S
C216        H222   1.112       .  S
C217        H223   1.086       .  S
C217        C218   1.368       .  D
C218        C341   1.442       .  S
C219        H224   1.087       .  S
C219        C220   1.363       .  D
C220        C329   1.441       .  S
C225        C226   1.534       .  S
C225        C231   1.535       .  S
C225        C229   1.538       .  S
C225        C347   1.471       .  S
C226        H233   1.088       .  S
C226        C227   1.361       .  D
C227        C228   1.534       .  S
C227        C336   1.442       .  S
C228        C232   1.536       .  S
C228        C230   1.537       .  S
C228        H234   1.112       .  S
C229        H235   1.086       .  S
C229        C230   1.368       .  D
C230        C321   1.443       .  S
C231        H236   1.087       .  S
C231        C232   1.364       .  D
C232        C320   1.442       .  S
C237        C238   1.537       .  S
C237        C243   1.533       .  S
C237        C241   1.538       .  S
C237        C345   1.471       .  S
C238        H245   1.087       .  S
C238        C239   1.365       .  D
C239        C240   1.535       .  S
C239        C313   1.443       .  S
C240        C244   1.533       .  S
C240        C242   1.537       .  S
C240        H246   1.112       .  S
C241        H247   1.086       .  S
C241        C242   1.368       .  D
C242        C324   1.443       .  S
C243        H248   1.088       .  S
C243        C244   1.360       .  D
C244        C325   1.439       .  S
C249        C250   1.533       .  S
C249        C255   1.536       .  S
C249        C253   1.538       .  S
C249        C380   1.470       .  S
C250        H257   1.088       .  S
C250        C251   1.361       .  D
C251        C252   1.533       .  S
C251        C305   1.439       .  S
C252        C256   1.535       .  S
C252        C254   1.537       .  S
C252        H258   1.112       .  S
C253        H259   1.086       .  S
C253        C254   1.368       .  D
C254        C309   1.443       .  S
C255        H260   1.087       .  S
C255        C256   1.365       .  D
C256        C340   1.442       .  S
C261        C262   1.534       .  S
C261        C267   1.534       .  S
C261        C265   1.539       .  S
C261        C378   1.471       .  S
C262        H269   1.087       .  S
C262        C263   1.363       .  D
C263        C264   1.536       .  S
C263        C332   1.441       .  S
C264        C268   1.534       .  S
C264        C266   1.537       .  S
C264        H270   1.112       .  S
C265        H271   1.086       .  S
C265        C266   1.368       .  D
C266        C312   1.443       .  S
C267        H272   1.088       .  S
C267        C268   1.361       .  D
C268        C301   1.442       .  S
C273        C274   1.535       .  S
C273        C279   1.533       .  S
C273        C277   1.538       .  S
C273        C360   1.468       .  S
C274        H281   1.087       .  S
C274        C275   1.364       .  D
C275        C276   1.536       .  S
C275        C317   1.442       .  S
C276        C280   1.533       .  S
C276        C278   1.537       .  S
C276        H282   1.112       .  S
C277        H283   1.086       .  S
C277        C278   1.368       .  D
C278        C300   1.442       .  S
C279        H284   1.088       .  S
C279        C280   1.361       .  D
C280        C308   1.440       .  S
C285        C286   1.534       .  S
C285        C291   1.536       .  S
C285        C289   1.537       .  S
C285        C357   1.471       .  S
C286        H293   1.088       .  S
C286        C287   1.361       .  D
C287        C288   1.534       .  S
C287        C304   1.442       .  S
C288        C292   1.536       .  S
C288        C290   1.538       .  S
C288        H294   1.112       .  S
C289        H295   1.086       .  S
C289        C290   1.367       .  D
C290        C297   1.442       .  S
C291        H296   1.087       .  S
C291        C292   1.364       .  D
C292        C316   1.443       .  S
C297        C298   1.206       .  T
C298        C299   1.413       .  S
C299        C300   1.206       .  T
C301        C302   1.206       .  T
C302        C303   1.412   1_455  S
C303        C304   1.206       .  T
C305        C306   1.204       .  T
C306        C307   1.410   1_455  S
C307        C308   1.204       .  T
C309        C310   1.207       .  T
C310        C311   1.414       .  S
C311        C312   1.207       .  T
C313        C314   1.207       .  T
C314        C315   1.414       .  S
C315        C316   1.207       .  T
C317        C318   1.206       .  T
C318        C319   1.413       .  S
C319        C320   1.206       .  T
C321        C322   1.207       .  T
C322        C323   1.413       .  S
C323        C324   1.206       .  T
C325        C326   1.204       .  T
C326        C327   1.410   1_655  S
C327        C328   1.204       .  T
C329        C330   1.206       .  T
C330        C331   1.412       .  S
C331        C332   1.206       .  T
C333        C334   1.206       .  T
C334        C335   1.412   1_455  S
C335        C336   1.206       .  T
C337        C338   1.206       .  T
C338        C339   1.413       .  S
C339        C340   1.206       .  T
C341        C342   1.206       .  T
C342        C343   1.413       .  S
C343        C344   1.206       .  T
C345        C346   1.208       .  T
C347        C348   1.208       .  T
C349        C350   1.206       .  T
C350        C351   1.413       .  S
C351        C352   1.206       .  T
C353        C354   1.207       .  T
C354        C355   1.415   1_545  S
C355        C356   1.207       .  T
C357        C358   1.208       .  T
C359        C360   1.206       .  T
C361        C362   1.207       .  T
C362        C363   1.415       .  S
C363        C364   1.207       .  T
C365        C366   1.206       .  T
C367        C368   1.208       .  T
C369        C370   1.206       .  T
C370        C371   1.412   1_655  S
C371        C372   1.206       .  T
C373        C374   1.207       .  T
C374        C375   1.414       .  S
C375        C376   1.207       .  T
C377        C378   1.208       .  T
C379        C380   1.207       .  T
C381        C382   1.206       .  T
C382        C383   1.413   1_655  S
C383        C384   1.206       .  T
C385        C386   1.207       .  T
C386        C387   1.415   1_565  S
C387        C388   1.207       .  T
C389        C390   1.206       .  T
C390        C391   1.413       .  S
C391        C392   1.206       .  T
C393        C394   1.207       .  T
C395        C396   1.207       .  T
C396        C397   1.414       .  S
C397        C398   1.207       .  T
C399        C400   1.208       .  T
C401        C402   1.206       .  T
C402        C403   1.412   1_565  S
C403        C404   1.206       .  T
C405        C406   1.208       .  T
C407        C408   1.205       .  T
C408        C409   1.410   1_545  S
C409        C410   1.205       .  T
C411        C412   1.207       .  T
C412        C413   1.414       .  S
C413        C414   1.207       .  T
C415        C416   1.207       .  T
C417        C418   1.206       .  T
C418        C419   1.413       .  S
C419        C420   1.206       .  T
C421        C422   1.207       .  T
C423        C424   1.207       .  T
C424        C425   1.414       .  S
C425        C426   1.207       .  T
C427        C428   1.207       .  T
C428        C429   1.414       .  S
C429        C430   1.207       .  T
C431        C432   1.208       .  T
C433        C434   1.207       .  T
C434        C435   1.414       .  S
C435        C436   1.207       .  T
C437        C438   1.205       .  T
C438        C439   1.410   1_545  S
C439        C440   1.205       .  T
C441        C442   1.208       .  T
C443        C444   1.206       .  T
C444        C445   1.413       .  S
C445        C446   1.206       .  T
C447        C448   1.206       .  T
C448        C449   1.412   1_545  S
C449        C450   1.206       .  T
C451        C452   1.207       .  T
C452        C453   1.414       .  S
C453        C454   1.207       .  T
C455        C456   1.207       .  T
