geometry optimzed in LAMMPS
_audit_creation_date              2020-11-30 
_audit_creation_method            'lammps2cif' 
_symmetry_space_group_name_H-M    'P1' 
_symmetry_Int_Tables_number       1 
_symmetry_cell_setting            triclinic 
loop_ 
_symmetry_equiv_pos_as_xyz 
  x,y,z 
_cell_length_a                    27.43731217 
_cell_length_b                    30.6469249323454 
_cell_length_c                    29.668107799544718 
_cell_angle_alpha                 87.90368766636131 
_cell_angle_beta                  89.38860903947622 
_cell_angle_gamma                 90.49124273062012 
loop_ 
_atom_site_label 
_atom_site_type_symbol 
_atom_site_fract_x 
_atom_site_fract_y 
_atom_site_fract_z 
_atom_site_charge 
O1          O  0.40332661  0.46444060  0.03804051    -0.81300
O2          O  0.10168652  0.05429551  0.03837301    -0.81300
O3          O  0.05777930  0.41043909  0.02068228    -0.81400
O4          O  0.46210000  0.11099458  0.02587552    -0.81300
O5          O  0.09644937  0.46617158  0.05102832    -0.81400
O6          O  0.42243640  0.04883284  0.04400852    -0.81300
O7          O  0.02937312  0.06247242  0.06846599    -0.81300
O8          O  0.47080179  0.43241836  0.05141006    -0.81400
C9          C  0.42591731  0.43540883  0.05944009     1.08400
C10         C  0.07512266  0.06811340  0.06940870     1.08200
C11         C  0.08492738  0.42617835  0.05126513     1.08400
C12         C  0.42915909  0.09030861  0.04895461     1.08300
O13         O  0.40486911  0.04031907  0.45843787    -0.81300
O14         O  0.10484116  0.45643461  0.45883711    -0.81400
O15         O  0.46254395  0.39703801  0.46746974    -0.81300
O16         O  0.05332092  0.09657715  0.47762595    -0.81300
O17         O  0.09169380  0.04177707  0.44578389    -0.81400
O18         O  0.42575047  0.46035573  0.45012986    -0.81300
O19         O  0.47337963  0.07176473  0.44492037    -0.81300
O20         O  0.03309643  0.44586924  0.43031118    -0.81400
Co21       Co  0.44361406  0.50340005  0.99913523     1.51500
Co22       Co  0.09331511  0.00441470  0.49931152     1.51700
Co23       Co  0.50013320  0.44423759  0.99007501     1.51600
Co24       Co  0.49900531  0.06229059  0.50786988     1.51500
O25         O  0.52005728  0.50323098  0.00115809    -1.43300
C26         C  0.42867740  0.06874256  0.43622830     1.08300
C27         C  0.07854787  0.43962746  0.42971845     1.08400
C28         C  0.43203989  0.41923650  0.44357239     1.08300
C29         C  0.07927392  0.08118338  0.44598781     1.08300
O30         O  0.32917566  0.29711242  0.29561426    -0.81300
O31         O  0.16241375  0.21080453  0.30434668    -0.81300
O32         O  0.22123440  0.30845651  0.31969271    -0.81400
O33         O  0.28166762  0.18256226  0.30287715    -0.81300
O34         O  0.14949120  0.29788648  0.29116517    -0.81400
O35         O  0.34968186  0.21471397  0.28897529    -0.81300
O36         O  0.20039938  0.15697870  0.27055303    -0.81300
O37         O  0.28986683  0.35933352  0.27909708    -0.81400
C38         C  0.32186022  0.33808524  0.30211250     1.08400
C39         C  0.17495598  0.17145761  0.30295847     1.08200
C40         C  0.17578188  0.31469342  0.32028568     1.08400
C41         C  0.32643961  0.18586270  0.31109240     1.08300
O42         O  0.33024412  0.20693982  0.20311927    -0.81300
O43         O  0.15787819  0.28815309  0.19897364    -0.81400
O44         O  0.27839295  0.32193814  0.19610106    -0.81300
O45         O  0.22290539  0.19322870  0.18036534    -0.81300
O46         O  0.15096593  0.20013766  0.21161504    -0.81400
O47         O  0.34691180  0.29085751  0.20729297    -0.81300
O48         O  0.29157357  0.14431468  0.22136752    -0.81300
O49         O  0.19654412  0.34388442  0.22932386    -0.81400
Co50       Co  0.30962461  0.25217449  0.24914288     1.51500
Co51       Co  0.15976363  0.24922110  0.25154364     1.51700
Co52       Co  0.25233457  0.31090797  0.25881755     1.51600
Co53       Co  0.25451300  0.19230984  0.24063564     1.51500
O54         O  0.23305546  0.25122426  0.24963606    -1.44500
C55         C  0.32365145  0.16550075  0.19773820     1.08300
C56         C  0.16939956  0.32814612  0.19873853     1.08400
C57         C  0.32269906  0.31876106  0.18576243     1.08300
C58         C  0.17717739  0.18718074  0.17992808     1.08300
C59         C  0.17364250  0.11890218  0.13857297    -0.10300
C60         C  0.15314383  0.15937154  0.14732490     0.05900
C61         C  0.10493686  0.16808895  0.13324552    -0.04100
C62         C  0.07840013  0.13652668  0.11084900    -0.08600
C63         C  0.09897808  0.09608929  0.10200291     0.05000
C64         C  0.14703351  0.08727426  0.11640361    -0.03600
Br65       Br  0.17762200  0.03187943  0.10835298    -0.03300
H66         H  0.20983056  0.11102805  0.15092521     0.08900
H67         H  0.04219836  0.14433089  0.09861976     0.06900
Br68       Br  0.07390645  0.22310480  0.14244772    -0.03700
C69         C  0.11744808  0.11563694  0.32966001    -0.10300
C70         C  0.15625591  0.14336601  0.33913283     0.05900
C71         C  0.16688961  0.15325380  0.38398577    -0.04100
C72         C  0.13803577  0.13567663  0.41891249    -0.08600
C73         C  0.09895174  0.10827411  0.40945386     0.05000
C74         C  0.08879148  0.09779777  0.36462813    -0.03600
Br75       Br  0.03611947  0.05953028  0.34953020    -0.03300
H76         H  0.10813688  0.10947024  0.29503449     0.08900
H77         H  0.14735118  0.14185922  0.45355069     0.06900
Br78       Br  0.22048425  0.19044564  0.39913617    -0.03700
C79         C  0.11113104  0.41949086  0.13025747    -0.10300
C80         C  0.10444384  0.39931587  0.08872895     0.05900
C81         C  0.12064492  0.35649942  0.08362998    -0.04100
C82         C  0.14320281  0.33483525  0.11974438    -0.08600
C83         C  0.14988721  0.35500974  0.16127371     0.05000
C84         C  0.13368799  0.39782675  0.16637220    -0.03600
Br85       Br  0.13878848  0.42762486  0.22197539    -0.03300
H86         H  0.09865183  0.45239411  0.13472489     0.08900
H87         H  0.15568244  0.30193470  0.11527699     0.06900
Br88       Br  0.11554484  0.32670072  0.02802728    -0.03700
C89         C  0.38160833  0.17179563  0.13275243    -0.10300
C90         C  0.35098443  0.14491827  0.16065457     0.05900
C91         C  0.34518382  0.10067214  0.14999852    -0.04100
C92         C  0.36994067  0.08459486  0.11282503    -0.08600
C93         C  0.40092744  0.11133911  0.08517717     0.05000
C94         C  0.40623839  0.15571893  0.09544233    -0.03600
Br95       Br  0.44567567  0.19694990  0.56051279    -0.03300
H96         H  0.38628292  0.20600545  0.13950409     0.08900
H97         H  0.36512994  0.05039991  0.10605124     0.06900
Br98       Br  0.30472506  0.05949367  0.18399581    -0.03700
C99         C  0.36165905  0.40318927  0.33459162    -0.10300
C100        C  0.34945331  0.35879685  0.33868177     0.05900
C101        C  0.36479108  0.33457997  0.37767831    -0.04100
C102        C  0.39232618  0.35469252  0.41061071    -0.08600
C103        C  0.40459890  0.39903566  0.40657563     0.05000
C104        C  0.38916803  0.42335751  0.36763240    -0.03600
Br105      Br  0.40687826  0.48336182  0.35492950    -0.03300
H106        H  0.35073568  0.42219536  0.30485558     0.08900
H107        H  0.40312507  0.33563057  0.44036293     0.06900
Br108      Br  0.34672335  0.27472850  0.39078391    -0.03700
C109        C  0.35949937  0.08570848  0.38472399    -0.10300
C110        C  0.40431158  0.09855354  0.40280073     0.05900
C111        C  0.42229226  0.14101372  0.39143567    -0.04100
C112        C  0.39613844  0.16880206  0.36210097    -0.08600
C113        C  0.35129328  0.15594520  0.34407616     0.05000
C114        C  0.33346202  0.11340155  0.35526206    -0.03600
Br115      Br  0.27607442  0.08903106  0.32908454    -0.03300
H116        H  0.34469542  0.05362050  0.39317181     0.08900
H117        H  0.41087090  0.20092123  0.35369624     0.06900
Br118      Br  0.48017811  0.16499729  0.41706490    -0.03700
C119        C  0.14533721  0.38795496  0.41652330    -0.10300
C120        C  0.10234951  0.40810635  0.40049745     0.05900
C121        C  0.08421561  0.39697896  0.35844789    -0.04100
C122        C  0.10898588  0.36635886  0.33348473    -0.08600
C123        C  0.15197517  0.34620925  0.34950953     0.05000
C124        C  0.17010662  0.35733414  0.39156060    -0.03600
Br125      Br  0.22655582  0.33056566  0.41786379    -0.03300
H126        H  0.15961971  0.39545659  0.44922089     0.08900
H127        H  0.09470316  0.35885704  0.30078664     0.06900
Br128      Br  0.02776156  0.42374262  0.33214775    -0.03700
C129        C  0.38993028  0.33440872  0.13089652    -0.10300
C130        C  0.34626692  0.34788284  0.15089456     0.05900
C131        C  0.32894655  0.39032606  0.14005832    -0.04100
C132        C  0.35588425  0.41822164  0.11078609    -0.08600
C133        C  0.40015226  0.40509397  0.09171022     0.05000
C134        C  0.41653084  0.36213177  0.10120485    -0.03600
Br135      Br  0.47272824  0.33760046  0.07281280    -0.03300
H136        H  0.40352732  0.30174737  0.13826994     0.08900
H137        H  0.34225149  0.45084102  0.10328512     0.06900
Br138      Br  0.27071830  0.41402649  0.16557862    -0.03700
O139        O  0.40333022  0.46443620  0.53804083    -0.81300
O140        O  0.10169848  0.05428662  0.53838249    -0.81300
O141        O  0.05778861  0.41044397  0.52068121    -0.81400
O142        O  0.46209392  0.11099216  0.52587493    -0.81300
O143        O  0.09645851  0.46617675  0.55102680    -0.81400
O144        O  0.42243356  0.04882942  0.54401004    -0.81300
O145        O  0.02938437  0.06247012  0.56847179    -0.81300
O146        O  0.47080819  0.43241586  0.55140365    -0.81400
C147        C  0.42592448  0.43540487  0.55943801     1.08400
C148        C  0.07513386  0.06810965  0.56941503     1.08200
C149        C  0.08493714  0.42618340  0.55126344     1.08400
C150        C  0.42915543  0.09030544  0.54895607     1.08300
O151        O  0.40487708  0.04031648  0.95843596    -0.81300
O152        O  0.10483649  0.45642564  0.95883915    -0.81400
O153        O  0.46254438  0.39703474  0.96747860    -0.81300
O154        O  0.05330461  0.09658411  0.97762115    -0.81300
O155        O  0.09167779  0.04178837  0.94577350    -0.81400
O156        O  0.42575575  0.46035316  0.95013299    -0.81300
O157        O  0.47338731  0.07176398  0.94492160    -0.81300
O158        O  0.03309215  0.44586297  0.93030983    -0.81400
Co159      Co  0.44360950  0.50340034  0.49913335     1.51500
Co160      Co  0.09330722  0.00442511  0.99929955     1.51700
Co161      Co  0.50013336  0.44424040  0.49006693     1.51600
Co162      Co  0.49901137  0.06229185  0.00787221     1.51500
O163        O  0.52005299  0.50323471  0.50115246    -1.43300
C164        C  0.42868609  0.06873923  0.93622612     1.08300
C165        C  0.07854359  0.43961966  0.92971960     1.08400
C166        C  0.43204358  0.41923324  0.94357778     1.08300
C167        C  0.07925648  0.08119393  0.94598069     1.08300
O168        O  0.32918215  0.29710652  0.79561617    -0.81300
O169        O  0.16240973  0.21081154  0.80434256    -0.81300
O170        O  0.22123648  0.30845898  0.81969190    -0.81400
O171        O  0.28166913  0.18256044  0.80288237    -0.81300
O172        O  0.14949486  0.29789370  0.79115743    -0.81400
O173        O  0.34968493  0.21470722  0.78897363    -0.81300
O174        O  0.20039676  0.15698217  0.77055570    -0.81300
O175        O  0.28987759  0.35932983  0.77909878    -0.81400
C176        C  0.32186937  0.33807971  0.80211454     1.08400
C177        C  0.17495085  0.17146411  0.80295790     1.08200
C178        C  0.17578388  0.31469751  0.82028102     1.08400
C179        C  0.32644253  0.18585786  0.81109339     1.08300
O180        O  0.33024260  0.20693306  0.70312111    -0.81300
O181        O  0.15789138  0.28815623  0.69896672    -0.81400
O182        O  0.27840376  0.32193479  0.69610258    -0.81300
O183        O  0.22291303  0.19322949  0.68036824    -0.81300
O184        O  0.15097053  0.20014180  0.71161055    -0.81400
O185        O  0.34692038  0.29085075  0.70729406    -0.81300
O186        O  0.29157209  0.14430918  0.72137450    -0.81300
O187        O  0.19655565  0.34388640  0.72932024    -0.81400
Co188      Co  0.30962900  0.25217051  0.74914342     1.51500
Co189      Co  0.15976799  0.24922612  0.75153802     1.51700
Co190      Co  0.25234169  0.31090708  0.75881853     1.51600
Co191      Co  0.25451562  0.19230833  0.74064040     1.51500
O192        O  0.23306020  0.25122400  0.74963842    -1.44500
C193        C  0.32364908  0.16549359  0.69774267     1.08300
C194        C  0.16941258  0.32814913  0.69873317     1.08400
C195        C  0.32270970  0.31875595  0.68576395     1.08300
C196        C  0.17718526  0.18718317  0.67992669     1.08300
C197        C  0.17364930  0.11889792  0.63858507    -0.10300
C198        C  0.15315560  0.15937337  0.64732248     0.05900
C199        C  0.10495519  0.16809670  0.63323015    -0.04100
C200        C  0.07841693  0.13653352  0.61083601    -0.08600
C201        C  0.09898830  0.09608946  0.60200567     0.05000
C202        C  0.14703795  0.08726946  0.61641757    -0.03600
Br203      Br  0.17761556  0.03186675  0.60838628    -0.03300
H204        H  0.20982366  0.11102240  0.65094421     0.08900
H205        H  0.04222379  0.14434016  0.59859823     0.06900
Br206      Br  0.07393660  0.22312150  0.64241198    -0.03700
C207        C  0.11743805  0.11564567  0.82965350    -0.10300
C208        C  0.15624556  0.14337573  0.83913223     0.05900
C209        C  0.16687226  0.15326694  0.88398481    -0.04100
C210        C  0.13801462  0.13569257  0.91891332    -0.08600
C211        C  0.09893220  0.10828705  0.90944799     0.05000
C212        C  0.08877785  0.09780862  0.86462249    -0.03600
Br213      Br  0.03611004  0.05953811  0.84952038    -0.03300
H214        H  0.10813747  0.10948039  0.79504800     0.08900
H215        H  0.14731868  0.14187227  0.95352650     0.06900
Br216      Br  0.22046530  0.19045894  0.89913930    -0.03700
C217        C  0.11114658  0.41949665  0.63025372    -0.10300
C218        C  0.10445495  0.39932064  0.58872614     0.05900
C219        C  0.12065239  0.35650314  0.58362686    -0.04100
C220        C  0.14321135  0.33483925  0.61974025    -0.08600
C221        C  0.14990041  0.35501342  0.66126879     0.05000
C222        C  0.13370492  0.39783163  0.66636726    -0.03600
Br223      Br  0.13881364  0.42763245  0.72196813    -0.03300
H224        H  0.09867144  0.45239803  0.63472083     0.08900
H225        H  0.15569018  0.30193409  0.61527191     0.06900
Br226      Br  0.11554590  0.32670399  0.52802474    -0.03700
C227        C  0.38163644  0.17177849  0.63278050    -0.10300
C228        C  0.35098169  0.14491011  0.66065947     0.05900
C229        C  0.34515082  0.10067274  0.64997905    -0.04100
C230        C  0.36990741  0.08459945  0.61280414    -0.08600
C231        C  0.40092459  0.11133566  0.58517943     0.05000
C232        C  0.40626746  0.15570673  0.59547040    -0.03600
Br233      Br  0.44559549  0.19697072  0.06044476    -0.03300
H234        H  0.38633898  0.20599450  0.63955507     0.08900
H235        H  0.36507023  0.05040282  0.60600813     0.06900
Br236      Br  0.30464860  0.05950399  0.68394303    -0.03700
C237        C  0.36166408  0.40318384  0.83459691    -0.10300
C238        C  0.34946365  0.35879056  0.83868379     0.05900
C239        C  0.36480621  0.33457282  0.87767835    -0.04100
C240        C  0.39233949  0.35468665  0.91061079    -0.08600
C241        C  0.40460541  0.39903119  0.90657964     0.05000
C242        C  0.38917075  0.42335337  0.86763780    -0.03600
Br243      Br  0.40687110  0.48336025  0.85493797    -0.03300
H244        H  0.35073570  0.42219318  0.80485885     0.08900
H245        H  0.40314336  0.33562138  0.94036526     0.06900
Br246      Br  0.34674623  0.27471916  0.89078104    -0.03700
C247        C  0.35950687  0.08570303  0.88472213    -0.10300
C248        C  0.40432141  0.09854730  0.90279496     0.05900
C249        C  0.42230442  0.14100550  0.89142422    -0.04100
C250        C  0.39614845  0.16879371  0.86209138    -0.08600
C251        C  0.35129877  0.15593911  0.84407408     0.05000
C252        C  0.33346661  0.11339644  0.85526280    -0.03600
Br253      Br  0.27607241  0.08902937  0.82909365    -0.03300
H254        H  0.34470175  0.05361442  0.89317273     0.08900
H255        H  0.41088248  0.20091121  0.85368283     0.06900
Br256      Br  0.48019709  0.16498759  0.91704230    -0.03700
C257        C  0.14531087  0.38792053  0.91654454    -0.10300
C258        C  0.10234418  0.40809813  0.90049951     0.05900
C259        C  0.08423574  0.39700358  0.85843143    -0.04100
C260        C  0.10900807  0.36638727  0.83346146    -0.08600
C261        C  0.15197676  0.34621186  0.84950519     0.05000
C262        C  0.17008192  0.35730292  0.89157543    -0.03600
Br263      Br  0.22649502  0.33048929  0.91789866    -0.03300
H264        H  0.15956470  0.39539475  0.94923751     0.08900
H265        H  0.09475426  0.35891331  0.80076812     0.06900
Br266      Br  0.02781583  0.42381013  0.83211249    -0.03700
C267        C  0.38994767  0.33440743  0.63090471    -0.10300
C268        C  0.34627941  0.34787770  0.65089656     0.05900
C269        C  0.32895472  0.39031840  0.64005450    -0.04100
C270        C  0.35589177  0.41821307  0.61078209    -0.08600
C271        C  0.40016315  0.40508976  0.59171093     0.05000
C272        C  0.41654815  0.36213062  0.60121302    -0.03600
Br273      Br  0.47275547  0.33760431  0.57283260    -0.03300
H274        H  0.40355019  0.30174594  0.63828386     0.08900
H275        H  0.34225220  0.45083572  0.60327521     0.06900
Br276      Br  0.27072125  0.41401637  0.66556674    -0.03700
O277        O  0.40528543  0.96431307  0.04040599    -0.81300
O278        O  0.10336565  0.55418908  0.03837548    -0.81300
O279        O  0.05564575  0.91053085  0.02148827    -0.81400
O280        O  0.46237201  0.61160299  0.02569200    -0.81300
O281        O  0.09380159  0.96629268  0.05236207    -0.81400
O282        O  0.42340149  0.54918814  0.04463490    -0.81300
O283        O  0.03142645  0.56110284  0.06962278    -0.81300
O284        O  0.47345360  0.93306583  0.05279434    -0.81400
C285        C  0.42894215  0.93619442  0.06219517     1.08400
C286        C  0.07715217  0.56715831  0.07005584     1.08200
C287        C  0.08248892  0.92624792  0.05240370     1.08400
C288        C  0.42998438  0.59073377  0.04944051     1.08300
O289        O  0.40477604  0.54174456  0.45965606    -0.81300
O290        O  0.10444875  0.95489071  0.46071176    -0.81400
O291        O  0.46295657  0.89566625  0.46979771    -0.81300
O292        O  0.05394025  0.59734520  0.47943539    -0.81300
O293        O  0.09192244  0.54351522  0.44564650    -0.81400
O294        O  0.42479715  0.95830083  0.45240767    -0.81300
O295        O  0.47387445  0.57135883  0.44491116    -0.81300
O296        O  0.03359483  0.94667860  0.43000671    -0.81400
Co297      Co  0.44374877  0.00283143  0.99924725     1.51500
Co298      Co  0.09457295  0.50510479  0.49845412     1.51700
Co299      Co  0.50074609  0.94362049  0.99060097     1.51600
Co300      Co  0.49975015  0.56294041  0.50786456     1.51500
O301        O  0.52023039  0.00312524  0.99991616    -1.43300
C302        C  0.42900237  0.56930281  0.43683851     1.08300
C303        C  0.07876703  0.93926528  0.43045443     1.08400
C304        C  0.43166260  0.91724203  0.44626211     1.08300
C305        C  0.07937956  0.58286220  0.44702917     1.08300
O306        O  0.32833159  0.79560412  0.29874586    -0.81300
O307        O  0.16261033  0.71257384  0.30419468    -0.81300
O308        O  0.22073361  0.80767557  0.31998151    -0.81400
O309        O  0.28196326  0.68392398  0.30480163    -0.81300
O310        O  0.14987992  0.79946546  0.28927337    -0.81400
O311        O  0.35057630  0.71429652  0.28970239    -0.81300
O312        O  0.20098207  0.65777181  0.27235348    -0.81300
O313        O  0.29052067  0.85851057  0.28155798    -0.81400
C314        C  0.32140705  0.83661459  0.30528258     1.08400
C315        C  0.17502708  0.67316631  0.30399022     1.08200
C316        C  0.17556149  0.81508974  0.31953184     1.08400
C317        C  0.32685322  0.68644893  0.31262648     1.08300
O318        O  0.33130694  0.70684927  0.20435695    -0.81300
O319        O  0.16053705  0.78807247  0.19760624    -0.81400
O320        O  0.28175103  0.82248846  0.19798004    -0.81300
O321        O  0.22493325  0.69188852  0.18151270    -0.81300
O322        O  0.15261708  0.70007546  0.21159530    -0.81400
O323        O  0.34988835  0.79140955  0.21086440    -0.81300
O324        O  0.29356401  0.64405160  0.22385454    -0.81300
O325        O  0.19869855  0.84382738  0.22848410    -0.81400
Co326      Co  0.31076489  0.75206974  0.25033174     1.51500
Co327      Co  0.16100743  0.74994210  0.25067078     1.51700
Co328      Co  0.25349984  0.81069425  0.25977151     1.51600
Co329      Co  0.25568318  0.69223519  0.24209794     1.51500
O330        O  0.23429237  0.75145387  0.24930027    -1.44500
C331        C  0.32525873  0.66524852  0.19963666     1.08300
C332        C  0.17185977  0.82811441  0.19756362     1.08400
C333        C  0.32653015  0.81982529  0.18931003     1.08300
C334        C  0.17918227  0.68625583  0.18056198     1.08300
C335        C  0.17591876  0.61784896  0.13911596    -0.10300
C336        C  0.15532838  0.65828058  0.14796514     0.05900
C337        C  0.10726954  0.66708528  0.13356588    -0.04100
C338        C  0.08066688  0.63545196  0.11139376    -0.08600
C339        C  0.10117979  0.59498463  0.10264643     0.05000
C340        C  0.14938865  0.58627942  0.11672419    -0.03600
Br341      Br  0.18043264  0.53126776  0.10753096    -0.03300
H342        H  0.21211316  0.61005633  0.15133875     0.08900
H343        H  0.04448916  0.64331585  0.09904581     0.06900
Br344      Br  0.07666335  0.72247176  0.14162152    -0.03700
C345        C  0.11630319  0.61863366  0.33106636    -0.10300
C346        C  0.15535341  0.64607598  0.34052767     0.05900
C347        C  0.16549113  0.65657195  0.38535213    -0.04100
C348        C  0.13684528  0.63871736  0.42032031    -0.08600
C349        C  0.09807202  0.61094965  0.41084722     0.05000
C350        C  0.08746132  0.60103921  0.36599547    -0.03600
Br351      Br  0.03390906  0.56379717  0.35084662    -0.03300
H352        H  0.10700931  0.61243500  0.29644385     0.08900
H353        H  0.14613801  0.64490200  0.45493959     0.06900
Br354      Br  0.21812377  0.69488273  0.40045011    -0.03700
C355        C  0.11330919  0.92010333  0.13006145    -0.10300
C356        C  0.10286675  0.89928887  0.08950840     0.05900
C357        C  0.11679557  0.85577833  0.08469003    -0.04100
C358        C  0.14105551  0.83426019  0.11989945    -0.08600
C359        C  0.15149573  0.85507534  0.16045347     0.05000
C360        C  0.13757032  0.89858676  0.16527002    -0.03600
Br361      Br  0.14815634  0.92990731  0.21928177    -0.03300
H362        H  0.10256533  0.95347191  0.13449430     0.08900
H363        H  0.15179485  0.80089478  0.11546893     0.06900
Br364      Br  0.10621104  0.82445913  0.03067681    -0.03700
C365        C  0.38402399  0.67141374  0.13512247    -0.10300
C366        C  0.35270443  0.64463180  0.16248877     0.05900
C367        C  0.34621675  0.60067669  0.15103093    -0.04100
C368        C  0.37070968  0.58486834  0.11349794    -0.08600
C369        C  0.40220166  0.61157682  0.08624775     0.05000
C370        C  0.40839560  0.65562557  0.09747756    -0.03600
Br371      Br  0.44854950  0.69686784  0.56330265    -0.03300
H372        H  0.38943692  0.70538753  0.14253784     0.08900
H373        H  0.36519851  0.55091296  0.10605965     0.06900
Br374      Br  0.30497860  0.55963679  0.18432672    -0.03700
C375        C  0.36162461  0.90100031  0.33769266    -0.10300
C376        C  0.34855178  0.85689113  0.34219568     0.05900
C377        C  0.36325933  0.83262597  0.38139184    -0.04100
C378        C  0.39100442  0.85261298  0.41427914    -0.08600
C379        C  0.40414808  0.89673330  0.40970351     0.05000
C380        C  0.38945508  0.92093593  0.37047323    -0.03600
Br381      Br  0.40879827  0.98039094  0.35685472    -0.03300
H382        H  0.35133272  0.91992212  0.30767749     0.08900
H383        H  0.40138839  0.83370125  0.44426719     0.06900
Br384      Br  0.34446210  0.77292855  0.39447680    -0.03700
C385        C  0.35848922  0.58738148  0.38788357    -0.10300
C386        C  0.40480210  0.59906837  0.40350350     0.05900
C387        C  0.42427401  0.64046130  0.39007708    -0.04100
C388        C  0.39778764  0.66848990  0.36137352    -0.08600
C389        C  0.35146363  0.65674572  0.34574627     0.05000
C390        C  0.33219525  0.61522269  0.35893644    -0.03600
Br391      Br  0.27226551  0.59223077  0.33640620    -0.03300
H392        H  0.34265888  0.55604838  0.39786403     0.08900
H393        H  0.41353157  0.69986589  0.35142365     0.06900
Br394      Br  0.48505214  0.66265945  0.41155571    -0.03700
C395        C  0.14362571  0.88547570  0.41784696    -0.10300
C396        C  0.10245407  0.90787273  0.40094851     0.05900
C397        C  0.08605256  0.89927848  0.35755669    -0.04100
C398        C  0.11070225  0.86887876  0.33214004    -0.08600
C399        C  0.15187392  0.84648163  0.34903835     0.05000
C400        C  0.16827613  0.85507671  0.39242989    -0.03600
Br401      Br  0.22202762  0.82502175  0.41985293    -0.03300
H402        H  0.15648799  0.89106544  0.45149207     0.08900
H403        H  0.09784015  0.86328957  0.29849414     0.06900
Br404      Br  0.03230567  0.92933868  0.33013193    -0.03700
C405        C  0.39555568  0.83662413  0.13682493    -0.10300
C406        C  0.35139407  0.84975635  0.15607940     0.05900
C407        C  0.33443050  0.89239669  0.14586318    -0.04100
C408        C  0.36082636  0.92006512  0.11596396    -0.08600
C409        C  0.40475729  0.90678994  0.09636560     0.05000
C410        C  0.42217613  0.86438093  0.10721319    -0.03600
Br411      Br  0.48011341  0.84048942  0.08126447    -0.03300
H412        H  0.40943668  0.80413347  0.14456611     0.08900
H413        H  0.34699402  0.95258692  0.10829400     0.06900
Br414      Br  0.27776700  0.91667885  0.17356541    -0.03700
O415        O  0.40528033  0.96431127  0.54040218    -0.81300
O416        O  0.10336998  0.55419444  0.53837715    -0.81300
O417        O  0.05564252  0.91052578  0.52150265    -0.81400
O418        O  0.46236259  0.61160292  0.52569220    -0.81300
O419        O  0.09380127  0.96628525  0.55237693    -0.81400
O420        O  0.42339465  0.54918658  0.54463417    -0.81300
O421        O  0.03143205  0.56110601  0.56962784    -0.81300
O422        O  0.47344860  0.93306423  0.55278939    -0.81400
C423        C  0.42893757  0.93619366  0.56219220     1.08400
C424        C  0.07715807  0.56716120  0.57005986     1.08200
C425        C  0.08248345  0.92624171  0.55242028     1.08400
C426        C  0.42997596  0.59073226  0.54944040     1.08300
O427        O  0.40478721  0.54174593  0.95965483    -0.81300
O428        O  0.10444506  0.95490530  0.96069784    -0.81400
O429        O  0.46296066  0.89566579  0.96980491    -0.81300
O430        O  0.05393863  0.59733952  0.97943079    -0.81300
O431        O  0.09192094  0.54350721  0.94564522    -0.81400
O432        O  0.42480154  0.95830007  0.95241326    -0.81300
O433        O  0.47388786  0.57135739  0.94491243    -0.81300
O434        O  0.03359142  0.94668557  0.92999549    -0.81400
Co435      Co  0.44374327  0.00283061  0.49924427     1.51500
Co436      Co  0.09456800  0.50509816  0.99845411     1.51700
Co437      Co  0.50074258  0.94361962  0.49059592     1.51600
Co438      Co  0.49975797  0.56293779  0.00786765     1.51500
O439        O  0.52022516  0.00312467  0.49991156    -1.43300
C440        C  0.42901604  0.56930304  0.93683808     1.08300
C441        C  0.07876422  0.93927554  0.93044273     1.08400
C442        C  0.43166626  0.91724094  0.94626957     1.08300
C443        C  0.07937946  0.58285474  0.94702663     1.08300
O444        O  0.32833153  0.79560625  0.79875798    -0.81300
O445        O  0.16262790  0.71256469  0.80421020    -0.81300
O446        O  0.22073709  0.80767143  0.81999446    -0.81400
O447        O  0.28197568  0.68392796  0.80480881    -0.81300
O448        O  0.14988271  0.79945291  0.78929140    -0.81400
O449        O  0.35058719  0.71430194  0.78970802    -0.81300
O450        O  0.20099846  0.65776696  0.77236173    -0.81300
O451        O  0.29051782  0.85851205  0.78157098    -0.81400
C452        C  0.32140464  0.83661630  0.80529541     1.08400
C453        C  0.17504510  0.67315773  0.80400126     1.08200
C454        C  0.17556441  0.81508233  0.81954640     1.08400
C455        C  0.32686573  0.68645362  0.81263245     1.08300
O456        O  0.33131362  0.70685639  0.70436227    -0.81300
O457        O  0.16053219  0.78806606  0.69762547    -0.81400
O458        O  0.28174980  0.82249359  0.69799110    -0.81300
O459        O  0.22494050  0.69188827  0.68152165    -0.81300
O460        O  0.15262629  0.70006744  0.71161080    -0.81400
O461        O  0.34988935  0.79141836  0.71087537    -0.81300
O462        O  0.29357648  0.64405642  0.72386122    -0.81300
O463        O  0.19869286  0.84382381  0.72850019    -0.81400
Co464      Co  0.31077028  0.75207367  0.75034073     1.51500
Co465      Co  0.16101371  0.74993327  0.75068760     1.51700
Co466      Co  0.25350035  0.81069471  0.75978297     1.51600
Co467      Co  0.25569354  0.69223698  0.74210570     1.51500
O468        O  0.23429790  0.75145367  0.74930922    -1.44500
C469        C  0.32526717  0.66525549  0.69964107     1.08300
C470        C  0.17185078  0.82810905  0.69758295     1.08400
C471        C  0.32652919  0.81983236  0.68932031     1.08300
C472        C  0.17918988  0.68625218  0.68057405     1.08300
C473        C  0.17593252  0.61785188  0.63911532    -0.10300
C474        C  0.15533446  0.65827876  0.64797636     0.05900
C475        C  0.10727101  0.66707865  0.63358762    -0.04100
C476        C  0.08066714  0.63544665  0.61141233    -0.08600
C477        C  0.10118848  0.59498432  0.60265232     0.05000
C478        C  0.14940191  0.58628375  0.61671993    -0.03600
Br479      Br  0.18045616  0.53127994  0.60750929    -0.03300
H480        H  0.21212044  0.61006387  0.65132686     0.08900
H481        H  0.04450064  0.64330420  0.59907823     0.06900
Br482      Br  0.07665393  0.72245766  0.64166077    -0.03700
C483        C  0.11631932  0.61862505  0.83106911    -0.10300
C484        C  0.15537097  0.64606392  0.84053497     0.05900
C485        C  0.16550510  0.65655768  0.88536066    -0.04100
C486        C  0.13685388  0.63870466  0.92032603    -0.08600
C487        C  0.09807801  0.61094137  0.91084739     0.05000
C488        C  0.08747100  0.60103310  0.86599455    -0.03600
Br489      Br  0.03391377  0.56379942  0.85083982    -0.03300
H490        H  0.10702767  0.61242875  0.79644435     0.08900
H491        H  0.14614222  0.64488676  0.95494256     0.06900
Br492      Br  0.21813765  0.69486627  0.90046495    -0.03700
C493        C  0.11329373  0.92009766  0.63008217    -0.10300
C494        C  0.10285359  0.89928208  0.58952847     0.05900
C495        C  0.11677915  0.85577063  0.58471230    -0.04100
C496        C  0.14103802  0.83425242  0.61992225    -0.08600
C497        C  0.15147997  0.85506877  0.66047529     0.05000
C498        C  0.13755366  0.89857990  0.66529183    -0.03600
Br499      Br  0.14813848  0.92989999  0.71930425    -0.03300
H500        H  0.10255276  0.95346076  0.63451296     0.08900
H501        H  0.15177603  0.80088912  0.61549234     0.06900
Br502      Br  0.10619408  0.82444950  0.53070056    -0.03700
C503        C  0.38396662  0.67143539  0.63507628    -0.10300
C504        C  0.35270647  0.64464018  0.66248864     0.05900
C505        C  0.34627015  0.60066698  0.65107533    -0.04100
C506        C  0.37076096  0.58485278  0.61354433    -0.08600
C507        C  0.40219517  0.61157423  0.58624917     0.05000
C508        C  0.40833223  0.65564189  0.59743078    -0.03600
Br509      Br  0.44870934  0.69683191  0.06342511    -0.03300
H510        H  0.38933419  0.70542470  0.64245394     0.08900
H511        H  0.36529400  0.55088118  0.60614282     0.06900
Br512      Br  0.30510719  0.55961040  0.68443210    -0.03700
C513        C  0.36163413  0.90099846  0.83769833    -0.10300
C514        C  0.34854832  0.85689248  0.84220854     0.05900
C515        C  0.36324509  0.83262932  0.88140935    -0.04100
C516        C  0.39099316  0.85261468  0.91429630    -0.08600
C517        C  0.40415030  0.89673191  0.90971286     0.05000
C518        C  0.38946755  0.92093236  0.87047810    -0.03600
Br519      Br  0.40882750  0.98038218  0.85685287    -0.03300
H520        H  0.35135197  0.91991570  0.80768254     0.08900
H521        H  0.40136737  0.83370799  0.94428420     0.06900
Br522      Br  0.34443091  0.77293661  0.89449965    -0.03700
C523        C  0.35850323  0.58738502  0.88788556    -0.10300
C524        C  0.40481746  0.59906964  0.90350313     0.05900
C525        C  0.42429073  0.64046211  0.89007628    -0.04100
C526        C  0.39780259  0.66849223  0.86137608    -0.08600
C527        C  0.35147761  0.65674995  0.84575053     0.05000
C528        C  0.33220875  0.61522696  0.85894047    -0.03600
Br529      Br  0.27227762  0.59223565  0.83641288    -0.03300
H530        H  0.34267082  0.55605089  0.89786714     0.08900
H531        H  0.41354831  0.69987232  0.85142559     0.06900
Br532      Br  0.48507337  0.66265552  0.91154953    -0.03700
C533        C  0.14363625  0.88549830  0.91783884    -0.10300
C534        C  0.10245400  0.90788003  0.90094219     0.05900
C535        C  0.08604249  0.89926469  0.85755874    -0.04100
C536        C  0.11069313  0.86886005  0.83215077    -0.08600
C537        C  0.15187509  0.84647798  0.84904717     0.05000
C538        C  0.16828760  0.85509435  0.89243019    -0.03600
Br539      Br  0.22205461  0.82506287  0.91985318    -0.03300
H540        H  0.15650865  0.89110427  0.95148292     0.08900
H541        H  0.09782052  0.86325444  0.79850483     0.06900
Br542      Br  0.03228047  0.92930147  0.83013362    -0.03700
C543        C  0.39556356  0.83663450  0.63684648    -0.10300
C544        C  0.35139181  0.84976234  0.65608695     0.05900
C545        C  0.33441773  0.89239575  0.64585395    -0.04100
C546        C  0.36081326  0.92006250  0.61595232    -0.08600
C547        C  0.40475364  0.90679236  0.59636700     0.05000
C548        C  0.42218284  0.86439074  0.60723204    -0.03600
Br549      Br  0.48013553  0.84050488  0.58130663    -0.03300
H550        H  0.40944970  0.80415760  0.64459844     0.08900
H551        H  0.34697283  0.95257744  0.60826976     0.06900
Br552      Br  0.27773722  0.91667140  0.67353323    -0.03700
O553        O  0.90741689  0.46347769  0.04270985    -0.81300
O554        O  0.60170027  0.05331776  0.03979494    -0.81300
O555        O  0.55412590  0.41046481  0.02217979    -0.81400
O556        O  0.96072891  0.11028627  0.02612396    -0.81300
O557        O  0.59261395  0.46591069  0.05345537    -0.81400
O558        O  0.92301308  0.04748191  0.04564396    -0.81300
O559        O  0.52891538  0.06152477  0.06891756    -0.81300
O560        O  0.97593370  0.43239419  0.05390178    -0.81400
C561        C  0.93162842  0.43557464  0.06424182     1.08400
C562        C  0.57469046  0.06680350  0.07066520     1.08200
C563        C  0.58098825  0.42595544  0.05327220     1.08400
C564        C  0.92905299  0.08908448  0.05035842     1.08300
O565        O  0.90373356  0.04004281  0.46031019    -0.81300
O566        O  0.60403007  0.45385436  0.46195527    -0.81400
O567        O  0.96445906  0.39499943  0.47090745    -0.81300
O568        O  0.55438398  0.09643565  0.47878038    -0.81300
O569        O  0.59316099  0.04186578  0.44703848    -0.81400
O570        O  0.92515783  0.45722425  0.45438944    -0.81300
O571        O  0.97234825  0.07040087  0.44518987    -0.81300
O572        O  0.53368014  0.44712582  0.43021488    -0.81400
Co573      Co  0.94470825  0.50215702  0.00085973     1.51500
Co574      Co  0.59346931  0.00399705  0.50005963     1.51700
Co575      Co  0.00199167  0.44341816  0.99118437     1.51600
Co576      Co  0.99863117  0.06210753  0.50789079     1.51500
O577        O  0.02127694  0.50309950  0.00036162    -1.43300
C578        C  0.92745599  0.06788427  0.43737788     1.08300
C579        C  0.57866989  0.43900513  0.43106168     1.08400
C580        C  0.93246789  0.41625114  0.44789194     1.08300
C581        C  0.58014023  0.08112288  0.44701231     1.08300
O582        O  0.82857225  0.29398920  0.29988125    -0.81300
O583        O  0.66146097  0.21357457  0.30344962    -0.81300
O584        O  0.72063379  0.30719820  0.31978225    -0.81400
O585        O  0.78045627  0.18299291  0.30510377    -0.81300
O586        O  0.65029005  0.30046360  0.28803191    -0.81400
O587        O  0.84955766  0.21260178  0.29036364    -0.81300
O588        O  0.69930480  0.15802111  0.27247075    -0.81300
O589        O  0.79176661  0.35730167  0.28254307    -0.81400
C590        C  0.82227370  0.33510650  0.30644052     1.08400
C591        C  0.67366526  0.17409087  0.30393343     1.08200
C592        C  0.67564254  0.31531177  0.31893152     1.08400
C593        C  0.82532677  0.18504594  0.31317985     1.08300
O594        O  0.83096447  0.20515769  0.20538394    -0.81300
O595        O  0.66171950  0.28840328  0.19655070    -0.81400
O596        O  0.78352906  0.32192787  0.19860565    -0.81300
O597        O  0.72376708  0.19067280  0.18152379    -0.81300
O598        O  0.65160312  0.20058391  0.21124476    -0.81400
O599        O  0.85100761  0.28990872  0.21197551    -0.81300
O600        O  0.79200738  0.14273824  0.22433232    -0.81300
O601        O  0.70018885  0.34385773  0.22783091    -0.81400
Co602      Co  0.81072843  0.25094179  0.25087790     1.51500
Co603      Co  0.66095764  0.25061351  0.24980517     1.51700
Co604      Co  0.75419126  0.31009519  0.25993586     1.51600
Co605      Co  0.75460351  0.19139676  0.24214357     1.51500
O606        O  0.73428583  0.25109977  0.24884198    -1.44500
C607        C  0.82439241  0.16361022  0.20058388     1.08300
C608        C  0.67332758  0.32836246  0.19673963     1.08400
C609        C  0.82841413  0.31893899  0.19057624     1.08300
C610        C  0.67789790  0.18560699  0.18068324     1.08300
C611        C  0.67267996  0.11586408  0.14163704    -0.10300
C612        C  0.65336889  0.15715465  0.14888555     0.05900
C613        C  0.60567278  0.16667562  0.13383150    -0.04100
C614        C  0.57862956  0.13529306  0.11167775    -0.08600
C615        C  0.59818333  0.09422388  0.10395111     0.05000
C616        C  0.64555316  0.08444034  0.11958082    -0.03600
Br617      Br  0.67450478  0.02812481  0.11292085    -0.03300
H618        H  0.70829717  0.10737052  0.15478998     0.08900
H619        H  0.54301158  0.14380996  0.09848696     0.06900
Br620      Br  0.57609583  0.22266506  0.14099236    -0.03700
C621        C  0.62301590  0.11324760  0.33139690    -0.10300
C622        C  0.65431285  0.14757250  0.34106550     0.05900
C623        C  0.65781247  0.16243790  0.38538616    -0.04100
C624        C  0.62963719  0.14272497  0.41957993    -0.08600
C625        C  0.59852618  0.10825663  0.40994080     0.05000
C626        C  0.59481075  0.09357496  0.36557654    -0.03600
Br627      Br  0.55109517  0.04739508  0.34982491    -0.03300
H628        H  0.61896637  0.10306800  0.29702323     0.08900
H629        H  0.63377324  0.15282678  0.45396894     0.06900
Br630      Br  0.70154956  0.20859589  0.40117716    -0.03700
C631        C  0.61013565  0.41896169  0.13139199    -0.10300
C632        C  0.60155025  0.39883339  0.09009481     0.05900
C633        C  0.61869797  0.35649345  0.08391734    -0.04100
C634        C  0.64415861  0.33535249  0.11862754    -0.08600
C635        C  0.65274800  0.35548196  0.15992345     0.05000
C636        C  0.63559262  0.39781915  0.16610418    -0.03600
Br637      Br  0.64318652  0.42757071  0.22149920    -0.03300
H638        H  0.59716220  0.45158838  0.13666722     0.08900
H639        H  0.65713286  0.30272828  0.11335083     0.06900
Br640      Br  0.61108928  0.32673419  0.02852873    -0.03700
C641        C  0.88356150  0.16949721  0.13644390    -0.10300
C642        C  0.85217335  0.14276842  0.16377582     0.05900
C643        C  0.84607377  0.09868728  0.15262876    -0.04100
C644        C  0.87042213  0.08289401  0.11497555    -0.08600
C645        C  0.90163077  0.10969771  0.08752246     0.05000
C646        C  0.90803837  0.15368262  0.09890693    -0.03600
Br647      Br  0.94921361  0.19473658  0.56555847    -0.03300
H648        H  0.88900247  0.20349254  0.14382329     0.08900
H649        H  0.86508126  0.04888130  0.10762130     0.06900
Br650      Br  0.80593833  0.05744550  0.18682183    -0.03700
C651        C  0.86197646  0.39965205  0.33940855    -0.10300
C652        C  0.84971179  0.35530856  0.34343746     0.05900
C653        C  0.86515567  0.33098328  0.38237439    -0.04100
C654        C  0.89266953  0.35115042  0.41541009    -0.08600
C655        C  0.90486913  0.39554276  0.41132504     0.05000
C656        C  0.88951734  0.41976391  0.37233519    -0.03600
Br657      Br  0.90757710  0.47961723  0.35923102    -0.03300
H658        H  0.85116308  0.41872497  0.30964772     0.08900
H659        H  0.90360693  0.33213470  0.44515131     0.06900
Br660      Br  0.84745747  0.27097631  0.39507410    -0.03700
C661        C  0.85653462  0.08584191  0.38861709    -0.10300
C662        C  0.90284679  0.09759224  0.40426570     0.05900
C663        C  0.92210795  0.13912446  0.39110173    -0.04100
C664        C  0.89582000  0.16696960  0.36215534    -0.08600
C665        C  0.84951911  0.15527663  0.34651323     0.05000
C666        C  0.83005419  0.11387401  0.35991320    -0.03600
Br667      Br  0.76930111  0.09166513  0.33838928    -0.03300
H668        H  0.84079818  0.05445803  0.39854757     0.08900
H669        H  0.91164456  0.19830776  0.35219282     0.06900
Br670      Br  0.98201629  0.16212382  0.41367022    -0.03700
C671        C  0.64675998  0.38905754  0.41559442    -0.10300
C672        C  0.60253951  0.40800879  0.40101636     0.05900
C673        C  0.58299303  0.39570476  0.35981338    -0.04100
C674        C  0.60754169  0.36524744  0.33440470    -0.08600
C675        C  0.65176419  0.34629911  0.34898084     0.05000
C676        C  0.67130830  0.35860037  0.39018568    -0.03600
Br677      Br  0.72987166  0.33424188  0.41487508    -0.03300
H678        H  0.66230960  0.39734669  0.44753352     0.08900
H679        H  0.59199123  0.35695698  0.30246380     0.06900
Br680      Br  0.52442761  0.42006105  0.33512675    -0.03700
C681        C  0.89844415  0.33612141  0.13922762    -0.10300
C682        C  0.85417754  0.34925230  0.15830432     0.05900
C683        C  0.83779929  0.39221386  0.14880757    -0.04100
C684        C  0.86439906  0.41993510  0.11911244    -0.08600
C685        C  0.90806102  0.40645702  0.09911318     0.05000
C686        C  0.92538057  0.36401434  0.10995182    -0.03600
Br687      Br  0.98360563  0.34030900  0.08443016    -0.03300
H688        H  0.91207446  0.30350604  0.14672907     0.08900
H689        H  0.85080494  0.45259134  0.11173819     0.06900
Br690      Br  0.78160201  0.41674623  0.17719966    -0.03700
O691        O  0.90742356  0.46347572  0.54271050    -0.81300
O692        O  0.60169452  0.05331853  0.53979138    -0.81300
O693        O  0.55413284  0.41047003  0.52216515    -0.81400
O694        O  0.96074344  0.11028788  0.52613109    -0.81300
O695        O  0.59262151  0.46591784  0.55343791    -0.81400
O696        O  0.92302467  0.04748469  0.54565096    -0.81300
O697        O  0.52890980  0.06152207  0.56891500    -0.81300
O698        O  0.97594148  0.43239423  0.55390388    -0.81400
C699        C  0.93163572  0.43557309  0.56424273     1.08400
C700        C  0.57468462  0.06680252  0.57066224     1.08200
C701        C  0.58099943  0.42596148  0.55325424     1.08400
C702        C  0.92906599  0.08908698  0.55036516     1.08300
O703        O  0.90372344  0.04003886  0.96030243    -0.81300
O704        O  0.60403367  0.45384038  0.96197168    -0.81400
O705        O  0.96444748  0.39499947  0.97090491    -0.81300
O706        O  0.55439097  0.09643597  0.97878316    -0.81300
O707        O  0.59316702  0.04186561  0.94704148    -0.81400
O708        O  0.92515014  0.45722632  0.95438709    -0.81300
O709        O  0.97233718  0.07039885  0.94518337    -0.81300
O710        O  0.53368513  0.44711880  0.93022552    -0.81400
Co711      Co  0.94471333  0.50215711  0.50086114     1.51500
Co712      Co  0.59347438  0.00399653  0.00006274     1.51700
Co713      Co  0.00199842  0.44342097  0.49118660     1.51600
Co714      Co  0.99861940  0.06210816  0.00788474     1.51500
O715        O  0.02128223  0.50310246  0.50036605    -1.43300
C716        C  0.92744545  0.06788062  0.93737019     1.08300
C717        C  0.57867413  0.43899539  0.93107466     1.08400
C718        C  0.93245757  0.41625285  0.94788935     1.08300
C719        C  0.58014666  0.08112284  0.94701499     1.08300
O720        O  0.82856572  0.29399033  0.79987614    -0.81300
O721        O  0.66145244  0.21358026  0.80344229    -0.81300
O722        O  0.72063086  0.30720122  0.81977212    -0.81400
O723        O  0.78044682  0.18299345  0.80509950    -0.81300
O724        O  0.65028661  0.30047200  0.78802075    -0.81400
O725        O  0.84954929  0.21260082  0.79036074    -0.81300
O726        O  0.69929515  0.15802445  0.77246586    -0.81300
O727        O  0.79176406  0.35730300  0.78253228    -0.81400
C728        C  0.82226811  0.33510822  0.80643330     1.08400
C729        C  0.67365557  0.17409591  0.80392760     1.08200
C730        C  0.67564038  0.31531755  0.81892133     1.08400
C731        C  0.82531719  0.18504498  0.81317582     1.08300
O732        O  0.83095961  0.20515550  0.70538213    -0.81300
O733        O  0.66171729  0.28840531  0.69653870    -0.81400
O734        O  0.78353013  0.32192405  0.69859645    -0.81300
O735        O  0.72376168  0.19067171  0.68151858    -0.81300
O736        O  0.65159715  0.20058697  0.71123736    -0.81400
O737        O  0.85100736  0.28990523  0.71197191    -0.81300
O738        O  0.79200049  0.14273686  0.72432996    -0.81300
O739        O  0.70019042  0.34385825  0.72781739    -0.81400
Co740      Co  0.81072337  0.25094150  0.75087357     1.51500
Co741      Co  0.66095233  0.25061825  0.74979595     1.51700
Co742      Co  0.75418958  0.31009530  0.75992622     1.51600
Co743      Co  0.75459642  0.19139667  0.74213864     1.51500
O744        O  0.73428094  0.25110074  0.74883409    -1.44500
C745        C  0.82438757  0.16360800  0.70058294     1.08300
C746        C  0.67333026  0.32836346  0.69672509     1.08400
C747        C  0.82841575  0.31893488  0.69057007     1.08300
C748        C  0.67789225  0.18560747  0.68067739     1.08300
C749        C  0.67266934  0.11586225  0.64163579    -0.10300
C750        C  0.65336368  0.15715386  0.64888084     0.05900
C751        C  0.60566907  0.16667684  0.63382299    -0.04100
C752        C  0.57862689  0.13529378  0.61167105    -0.08600
C753        C  0.59817631  0.09422329  0.60394824     0.05000
C754        C  0.64554478  0.08443792  0.61958135    -0.03600
Br755      Br  0.67449227  0.02812018  0.61292579    -0.03300
H756        H  0.70830271  0.10736347  0.65479792     0.08900
H757        H  0.54299859  0.14381460  0.59847294     0.06900
Br758      Br  0.57609702  0.22266933  0.64097717    -0.03700
C759        C  0.62300863  0.11325104  0.83139383    -0.10300
C760        C  0.65430420  0.14757852  0.84106136     0.05900
C761        C  0.65780857  0.16244250  0.88538181    -0.04100
C762        C  0.62963942  0.14272688  0.91957907    -0.08600
C763        C  0.59853006  0.10825618  0.90994189     0.05000
C764        C  0.59481033  0.09357526  0.86557793    -0.03600
Br765      Br  0.55109774  0.04739164  0.84982987    -0.03300
H766        H  0.61895731  0.10307458  0.79703038     0.08900
H767        H  0.63377833  0.15282665  0.95396261     0.06900
Br768      Br  0.70154678  0.20860012  0.90116992    -0.03700
C769        C  0.61015732  0.41896866  0.63137017    -0.10300
C770        C  0.60156721  0.39883956  0.59007441     0.05900
C771        C  0.61870993  0.35649755  0.58389796    -0.04100
C772        C  0.64416558  0.33535393  0.61861016    -0.08600
C773        C  0.65275688  0.35548343  0.65990576     0.05000
C774        C  0.63561050  0.39782409  0.66608322    -0.03600
Br775      Br  0.64320998  0.42757873  0.72147561    -0.03300
H776        H  0.59718914  0.45159674  0.63664448     0.08900
H777        H  0.65713501  0.30272634  0.61333511     0.06900
Br778      Br  0.61110072  0.32673969  0.52850839    -0.03700
C779        C  0.88359190  0.16948877  0.63647067    -0.10300
C780        C  0.85217319  0.14276519  0.66377837     0.05900
C781        C  0.84604808  0.09869321  0.65260840    -0.04100
C782        C  0.87040204  0.08290133  0.61495660    -0.08600
C783        C  0.90164072  0.10970045  0.58752730     0.05000
C784        C  0.90807258  0.15367614  0.59893398    -0.03600
Br785      Br  0.94914042  0.19475106  0.06549900    -0.03300
H786        H  0.88905265  0.20346953  0.64386667     0.08900
H787        H  0.86504126  0.04890470  0.60758592     0.06900
Br788      Br  0.80586456  0.05746038  0.68676301    -0.03700
C789        C  0.86195893  0.39965755  0.83940623    -0.10300
C790        C  0.84970290  0.35531067  0.84343250     0.05900
C791        C  0.86515136  0.33098467  0.88236665    -0.04100
C792        C  0.89266436  0.35115090  0.91540543    -0.08600
C793        C  0.90485708  0.39554615  0.91132206     0.05000
C794        C  0.88949940  0.41976857  0.87233570    -0.03600
Br795      Br  0.90755006  0.47962445  0.85923503    -0.03300
H796        H  0.85114584  0.41872369  0.80966055     0.08900
H797        H  0.90360113  0.33214251  0.94513046     0.06900
Br798      Br  0.84746432  0.27097464  0.89506244    -0.03700
C799        C  0.85652556  0.08583833  0.88860730    -0.10300
C800        C  0.90283649  0.09758763  0.90425741     0.05900
C801        C  0.92209784  0.13912030  0.89109426    -0.04100
C802        C  0.89580957  0.16696496  0.86214936    -0.08600
C803        C  0.84950893  0.15527402  0.84650763     0.05000
C804        C  0.83004393  0.11387053  0.85990567    -0.03600
Br805      Br  0.76929008  0.09166368  0.83838142    -0.03300
H806        H  0.84078576  0.05444518  0.89853866     0.08900
H807        H  0.91163797  0.19830980  0.85218521     0.06900
Br808      Br  0.98200601  0.16212004  0.91366229    -0.03700
C809        C  0.64674555  0.38902625  0.91561107    -0.10300
C810        C  0.60254240  0.40800193  0.90102530     0.05900
C811        C  0.58301162  0.39572835  0.85980474    -0.04100
C812        C  0.60756050  0.36527727  0.83438923    -0.08600
C813        C  0.65176527  0.34630397  0.84897368     0.05000
C814        C  0.67129391  0.35857496  0.89019587    -0.03600
Br815      Br  0.72983267  0.33417886  0.91489673    -0.03300
H816        H  0.66228625  0.39729514  0.94757271     0.08900
H817        H  0.59201958  0.35700745  0.80242695     0.06900
Br818      Br  0.52446964  0.42012045  0.83510692    -0.03700
C819        C  0.89844822  0.33611752  0.63922353    -0.10300
C820        C  0.85418164  0.34924806  0.65829987     0.05900
C821        C  0.83780520  0.39221070  0.64880527    -0.04100
C822        C  0.86440637  0.41993144  0.61911206    -0.08600
C823        C  0.90806778  0.40645442  0.59911273     0.05000
C824        C  0.92538648  0.36401091  0.60994996    -0.03600
Br825      Br  0.98361295  0.34030702  0.58442942    -0.03300
H826        H  0.91207903  0.30349782  0.64672489     0.08900
H827        H  0.85081065  0.45259474  0.61173788     0.06900
Br828      Br  0.78161009  0.41674399  0.67719974    -0.03700
O829        O  0.90444319  0.96291602  0.03912533    -0.81300
O830        O  0.60276666  0.55372543  0.03875240    -0.81300
O831        O  0.55547439  0.90995420  0.02135718    -0.81400
O832        O  0.96276693  0.61001452  0.02862055    -0.81300
O833        O  0.59294752  0.96555269  0.05294422    -0.81400
O834        O  0.92410437  0.54738923  0.04688657    -0.81300
O835        O  0.53061057  0.56364788  0.06848296    -0.81300
O836        O  0.97258909  0.93184793  0.05200066    -0.81400
C837        C  0.92781067  0.93450426  0.06067626     1.08400
C838        C  0.57648163  0.56870469  0.06931883     1.08200
C839        C  0.58197368  0.92551307  0.05254095     1.08400
C840        C  0.93069782  0.58882850  0.05226129     1.08300
O841        O  0.90465645  0.53962424  0.46103464    -0.81300
O842        O  0.60407098  0.95489906  0.46070618    -0.81400
O843        O  0.96381786  0.89583519  0.46843136    -0.81300
O844        O  0.55504812  0.59630625  0.47752385    -0.81300
O845        O  0.59287614  0.54074699  0.44653800    -0.81400
O846        O  0.92600068  0.95874037  0.45124847    -0.81300
O847        O  0.97267791  0.57175533  0.44711664    -0.81300
O848        O  0.53302866  0.94578738  0.43027870    -0.81400
Co849      Co  0.94355236  0.00226812  0.99966113     1.51500
Co850      Co  0.59338205  0.50370681  0.50018149     1.51700
Co851      Co  0.00083171  0.94365433  0.99020868     1.51600
Co852      Co  0.99982717  0.56201741  0.50935903     1.51500
O853        O  0.02002488  0.00289404  0.00068960    -1.43300
C854        C  0.92790404  0.56846624  0.43890956     1.08300
C855        C  0.57836470  0.93901286  0.43052000     1.08400
C856        C  0.93293004  0.91773135  0.44470832     1.08300
C857        C  0.58067983  0.58023312  0.44605715     1.08300
O858        O  0.82955580  0.79604189  0.29759179    -0.81300
O859        O  0.66120874  0.71246762  0.30295744    -0.81300
O860        O  0.72132232  0.80854728  0.31970218    -0.81400
O861        O  0.78098807  0.68257880  0.30508565    -0.81300
O862        O  0.65028533  0.79943114  0.28926664    -0.81400
O863        O  0.84949887  0.71402383  0.29157290    -0.81300
O864        O  0.69999540  0.65789283  0.27123232    -0.81300
O865        O  0.79139386  0.85867054  0.28018422    -0.81400
C866        C  0.82268576  0.83710070  0.30372837     1.08400
C867        C  0.67423223  0.67321096  0.30299405     1.08200
C868        C  0.67598618  0.81531997  0.31945540     1.08400
C869        C  0.82568884  0.68560055  0.31378045     1.08300
O870        O  0.83195119  0.70551196  0.20600342    -0.81300
O871        O  0.66142871  0.78875312  0.19703509    -0.81400
O872        O  0.78091511  0.82125373  0.19719823    -0.81300
O873        O  0.72547212  0.69278984  0.18108682    -0.81300
O874        O  0.65268707  0.70098756  0.21021016    -0.81400
O875        O  0.84909021  0.79002717  0.20960690    -0.81300
O876        O  0.79229866  0.64334252  0.22413396    -0.81300
O877        O  0.69888708  0.84436255  0.22861713    -0.81400
Co878      Co  0.81062473  0.75150655  0.25076130     1.51500
Co879      Co  0.66089998  0.75032262  0.24992702     1.51700
Co880      Co  0.75361561  0.81070917  0.25938911     1.51600
Co881      Co  0.75537106  0.69203809  0.24213320     1.51500
O882        O  0.73414288  0.75120191  0.25008138    -1.44500
C883        C  0.82523846  0.66403562  0.20105840     1.08300
C884        C  0.67239227  0.82879510  0.19743437     1.08400
C885        C  0.82542941  0.81813461  0.18780674     1.08300
C886        C  0.67969864  0.68750189  0.17934127     1.08300
C887        C  0.67576331  0.61901236  0.13832025    -0.10300
C888        C  0.65620856  0.66007883  0.14605595     0.05900
C889        C  0.60883634  0.66986145  0.13043107    -0.04100
C890        C  0.58171182  0.63843875  0.10837599    -0.08600
C891        C  0.60102138  0.59715250  0.10111540     0.05000
C892        C  0.64872237  0.58763214  0.11616099    -0.03600
Br893      Br  0.67830444  0.53164771  0.10898052    -0.03300
H894        H  0.71139924  0.61049117  0.15151293     0.08900
H895        H  0.54607439  0.64693550  0.09522393     0.06900
Br896      Br  0.57988106  0.72617448  0.13709871    -0.03700
C897        C  0.62475490  0.61159400  0.33042303    -0.10300
C898        C  0.65583521  0.64608261  0.34006628     0.05900
C899        C  0.65950978  0.66078118  0.38442795    -0.04100
C900        C  0.63130056  0.64109995  0.41859952    -0.08600
C901        C  0.60003772  0.60675193  0.40892666     0.05000
C902        C  0.59657208  0.59187534  0.36460757    -0.03600
Br903      Br  0.55286682  0.54569764  0.34880446    -0.03300
H904        H  0.62064618  0.60147907  0.29603177     0.08900
H905        H  0.63532116  0.65129306  0.45297340     0.06900
Br906      Br  0.70317449  0.70699569  0.40018917    -0.03700
C907        C  0.60791467  0.91814593  0.13152193    -0.10300
C908        C  0.60214417  0.89851670  0.08957674     0.05900
C909        C  0.62152485  0.85699923  0.08322234    -0.04100
C910        C  0.64643727  0.83615482  0.11845486    -0.08600
C911        C  0.65221142  0.85578536  0.16039891     0.05000
C912        C  0.63282699  0.89730123  0.16675403    -0.03600
Br913      Br  0.63684553  0.92621931  0.22293097    -0.03300
H914        H  0.59315721  0.95016331  0.13687133     0.08900
H915        H  0.66119608  0.80413399  0.11310520     0.06900
Br916      Br  0.61750075  0.82808104  0.02704577    -0.03700
C917        C  0.88424981  0.66980270  0.13702686    -0.10300
C918        C  0.85347011  0.64301456  0.16483204     0.05900
C919        C  0.84836278  0.59857736  0.15473167    -0.04100
C920        C  0.87297338  0.58248910  0.11741893    -0.08600
C921        C  0.90338478  0.60940831  0.08935674     0.05000
C922        C  0.90899699  0.65371231  0.09985603    -0.03600
Br923      Br  0.94912634  0.69495435  0.56560437    -0.03300
H924        H  0.88889983  0.70405691  0.14367449     0.08900
H925        H  0.86846044  0.54821929  0.11079470     0.06900
Br926      Br  0.80934824  0.55726572  0.18999078    -0.03700
C927        C  0.86333420  0.90173458  0.33571136    -0.10300
C928        C  0.85019382  0.85761347  0.34028742     0.05900
C929        C  0.86488976  0.83341062  0.37951684    -0.04100
C930        C  0.89271914  0.85334686  0.41229628    -0.08600
C931        C  0.90578830  0.89745613  0.40779406     0.05000
C932        C  0.89107879  0.92172194  0.36859896    -0.03600
Br933      Br  0.90987327  0.98142021  0.35551567    -0.03300
H934        H  0.85294961  0.92064488  0.30572491     0.08900
H935        H  0.90301367  0.83442411  0.44231202     0.06900
Br936      Br  0.84555506  0.77395335  0.39313651    -0.03700
C937        C  0.85820742  0.58553685  0.38790634    -0.10300
C938        C  0.90305628  0.59838756  0.40592822     0.05900
C939        C  0.92089748  0.64092738  0.39474159    -0.04100
C940        C  0.89486435  0.66862663  0.36528253    -0.08600
C941        C  0.85004939  0.65578701  0.34720683     0.05000
C942        C  0.83206101  0.61332938  0.35857035    -0.03600
Br943      Br  0.77417578  0.58934993  0.33293640    -0.03300
H944        H  0.84347159  0.55342812  0.39631040     0.08900
H945        H  0.90967124  0.70070693  0.35683663     0.06900
Br946      Br  0.97829542  0.66528569  0.42091188    -0.03700
C947        C  0.64560042  0.88796508  0.41642143    -0.10300
C948        C  0.60241351  0.90799027  0.40078492     0.05900
C949        C  0.58406750  0.89687094  0.35875738    -0.04100
C950        C  0.60874524  0.86636455  0.33355380    -0.08600
C951        C  0.65193308  0.84634059  0.34918968     0.05000
C952        C  0.67027895  0.85746041  0.39121715    -0.03600
Br953      Br  0.72701929  0.83105253  0.41730221    -0.03300
H954        H  0.66012553  0.89543835  0.44900637     0.08900
H955        H  0.59421945  0.85888972  0.30096734     0.06900
Br956      Br  0.52733096  0.92328517  0.33267216    -0.03700
C957        C  0.89354892  0.83426986  0.13404434    -0.10300
C958        C  0.84961037  0.84753793  0.15363463     0.05900
C959        C  0.83217778  0.88993950  0.14277682    -0.04100
C960        C  0.85878988  0.91769755  0.11316031    -0.08600
C961        C  0.90295780  0.90457220  0.09391187     0.05000
C962        C  0.91993774  0.86193993  0.10414078    -0.03600
Br963      Br  0.97661721  0.83766995  0.07645406    -0.03300
H964        H  0.90739034  0.80175822  0.14172288     0.08900
H965        H  0.84490039  0.95017635  0.10541269     0.06900
Br966      Br  0.77423203  0.91382309  0.16871780    -0.03700
O967        O  0.90444604  0.96292193  0.53913514    -0.81300
O968        O  0.60276208  0.55373512  0.53873699    -0.81300
O969        O  0.55547069  0.90995405  0.52135350    -0.81400
O970        O  0.96276693  0.61001388  0.52862645    -0.81300
O971        O  0.59294239  0.96555330  0.55294095    -0.81400
O972        O  0.92410316  0.54738803  0.54688778    -0.81300
O973        O  0.53060963  0.56365253  0.56847682    -0.81300
O974        O  0.97258998  0.93185132  0.55201170    -0.81400
C975        C  0.92781183  0.93450964  0.56068697     1.08400
C976        C  0.57648062  0.56871254  0.56930680     1.08200
C977        C  0.58196975  0.92551350  0.55253731     1.08400
C978        C  0.93069613  0.58882711  0.55226452     1.08300
O979        O  0.90464998  0.53962696  0.96103730    -0.81300
O980        O  0.60407284  0.95489857  0.96070839    -0.81400
O981        O  0.96381953  0.89583610  0.96841876    -0.81300
O982        O  0.55506265  0.59629824  0.97753071    -0.81300
O983        O  0.59289339  0.54073623  0.94655176    -0.81400
O984        O  0.92599803  0.95874025  0.95123825    -0.81300
O985        O  0.97267214  0.57175423  0.94711192    -0.81300
O986        O  0.53302925  0.94578879  0.93028305    -0.81400
Co987      Co  0.94355940  0.00226936  0.49966902     1.51500
Co988      Co  0.59338685  0.50369651  0.00019664     1.51700
Co989      Co  0.00083358  0.94365247  0.49021924     1.51600
Co990      Co  0.99982307  0.56201532  0.00935375     1.51500
O991        O  0.02003198  0.00289162  0.50069626    -1.43300
C992        C  0.92789659  0.56846829  0.93891026     1.08300
C993        C  0.57836483  0.93901331  0.93052264     1.08400
C994        C  0.93292993  0.91773170  0.94469722     1.08300
C995        C  0.58069681  0.58022263  0.94606685     1.08300
O996        O  0.82954614  0.79604463  0.79759116    -0.81300
O997        O  0.66119733  0.71246686  0.80295336    -0.81300
O998        O  0.72131438  0.80854715  0.81969980    -0.81400
O999        O  0.78097694  0.68257829  0.80508546    -0.81300
O1000       O  0.65027721  0.79943099  0.78926442    -0.81400
O1001       O  0.84948701  0.71402793  0.79158030    -0.81300
O1002       O  0.69998594  0.65789346  0.77122800    -0.81300
O1003       O  0.79138388  0.85867281  0.78018140    -0.81400
C1004       C  0.82267580  0.83710367  0.80372589     1.08400
C1005       C  0.67422276  0.67321065  0.80299034     1.08200
C1006       C  0.67597822  0.81531905  0.81945376     1.08400
C1007       C  0.82567610  0.68560386  0.81378597     1.08300
O1008       O  0.83194730  0.70551171  0.70600702    -0.81300
O1009       O  0.66142277  0.78875425  0.69703203    -0.81400
O1010       O  0.78090860  0.82125458  0.69719710    -0.81300
O1011       O  0.72546750  0.69279414  0.68108347    -0.81300
O1012       O  0.65268154  0.70098930  0.71020544    -0.81400
O1013       O  0.84908338  0.79002828  0.70960920    -0.81300
O1014       O  0.79229068  0.64334318  0.72413264    -0.81300
O1015       O  0.69887963  0.84436332  0.72861542    -0.81400
Co1016     Co  0.81061653  0.75150730  0.75076255     1.51500
Co1017     Co  0.66089189  0.75032324  0.74992368     1.51700
Co1018     Co  0.75360774  0.81071000  0.75938724     1.51600
Co1019     Co  0.75536327  0.69203920  0.74213157     1.51500
O1020       O  0.73413485  0.75120259  0.75008037    -1.44500
C1021       C  0.82523323  0.66403578  0.70106004     1.08300
C1022       C  0.67238635  0.82879602  0.69743162     1.08400
C1023       C  0.82542368  0.81813662  0.68780883     1.08300
C1024       C  0.67969391  0.68750758  0.67933517     1.08300
C1025       C  0.67577167  0.61903113  0.63829120    -0.10300
C1026       C  0.65620451  0.66008943  0.64604491     0.05900
C1027       C  0.60882559  0.66986486  0.63043219    -0.04100
C1028       C  0.58170314  0.63844136  0.60837537    -0.08600
C1029       C  0.60102386  0.59716160  0.60110010     0.05000
C1030       C  0.64873349  0.58765052  0.61612926    -0.03600
Br1031     Br  0.67833526  0.53167786  0.60892400    -0.03300
H1032       H  0.71140885  0.61051703  0.65147007     0.08900
H1033       H  0.54606334  0.64693174  0.59523620     0.06900
Br1034     Br  0.57985571  0.72616941  0.63711814    -0.03700
C1035       C  0.62476129  0.61158443  0.83042601    -0.10300
C1036       C  0.65583168  0.64608202  0.84006566     0.05900
C1037       C  0.65950644  0.66078289  0.88442637    -0.04100
C1038       C  0.63130720  0.64109557  0.91860211    -0.08600
C1039       C  0.60005358  0.60673928  0.90893335     0.05000
C1040       C  0.59658816  0.59186029  0.86461533    -0.03600
Br1041     Br  0.55289205  0.54567454  0.84881684    -0.03300
H1042       H  0.62065321  0.60146895  0.79604264     0.08900
H1043       H  0.63532680  0.65129086  0.95297160     0.06900
Br1044     Br  0.70315855  0.70700881  0.90018217    -0.03700
C1045       C  0.60790997  0.91814800  0.63151842    -0.10300
C1046       C  0.60214118  0.89851739  0.58957274     0.05900
C1047       C  0.62152215  0.85700045  0.58321857    -0.04100
C1048       C  0.64643507  0.83615414  0.61845119    -0.08600
C1049       C  0.65220723  0.85578669  0.66039581     0.05000
C1050       C  0.63282228  0.89730186  0.66675080    -0.03600
Br1051     Br  0.63683663  0.92621850  0.72292892    -0.03300
H1052       H  0.59315582  0.95015529  0.63686634     0.08900
H1053       H  0.66118769  0.80414584  0.61310408     0.06900
Br1054     Br  0.61749745  0.82808105  0.52704274    -0.03700
C1055       C  0.88423133  0.66980649  0.63701816    -0.10300
C1056       C  0.85346576  0.64301475  0.66483386     0.05900
C1057       C  0.84837333  0.59857346  0.65474487    -0.04100
C1058       C  0.87298396  0.58248438  0.61743241    -0.08600
C1059       C  0.90338130  0.60940623  0.58935968     0.05000
C1060       C  0.90897901  0.65371439  0.59984804    -0.03600
Br1061     Br  0.94916447  0.69494772  0.06562746    -0.03300
H1062       H  0.88886889  0.70406085  0.64365591     0.08900
H1063       H  0.86848317  0.54820917  0.61081685     0.06900
Br1064     Br  0.80938265  0.55725801  0.69002240    -0.03700
C1065       C  0.86334282  0.90173337  0.83569773    -0.10300
C1066       C  0.85018430  0.85761724  0.84028309     0.05900
C1067       C  0.86486623  0.83341756  0.87951902    -0.04100
C1068       C  0.89270005  0.85335177  0.91229685    -0.08600
C1069       C  0.90578739  0.89745651  0.90778434     0.05000
C1070       C  0.89109144  0.92171939  0.86858299    -0.03600
Br1071     Br  0.90990912  0.98141081  0.85549145    -0.03300
H1072       H  0.85296847  0.92064172  0.80570351     0.08900
H1073       H  0.90298242  0.83443427  0.94231528     0.06900
Br1074     Br  0.84550794  0.77396749  0.89314788    -0.03700
C1075       C  0.85819607  0.58554224  0.88791300    -0.10300
C1076       C  0.90304508  0.59839216  0.90593389     0.05900
C1077       C  0.92088285  0.64093409  0.89475174    -0.04100
C1078       C  0.89484728  0.66863434  0.86529537    -0.08600
C1079       C  0.85003464  0.65579274  0.84721623     0.05000
C1080       C  0.83204792  0.61333415  0.85857864    -0.03600
Br1081     Br  0.77416356  0.58935318  0.83294467    -0.03300
H1082       H  0.84345942  0.55342820  0.89631707     0.08900
H1083       H  0.90965208  0.70071786  0.85685229     0.06900
Br1084     Br  0.97828017  0.66529144  0.92092430    -0.03700
C1085       C  0.64560411  0.88797240  0.91641443    -0.10300
C1086       C  0.60241125  0.90799044  0.90078631     0.05900
C1087       C  0.58405489  0.89686107  0.85876523    -0.04100
C1088       C  0.60873051  0.86635387  0.83356230    -0.08600
C1089       C  0.65192523  0.84633793  0.84919014     0.05000
C1090       C  0.67028059  0.85746707  0.89121163    -0.03600
Br1091     Br  0.72703130  0.83107200  0.91728920    -0.03300
H1092       H  0.66014148  0.89545454  0.94900484     0.08900
H1093       H  0.59419410  0.85887091  0.80097392     0.06900
Br1094     Br  0.52730683  0.92326187  0.83268850    -0.03700
C1095       C  0.89353961  0.83427329  0.63404327    -0.10300
C1096       C  0.84960735  0.84754208  0.65364066     0.05900
C1097       C  0.83218182  0.88994878  0.64279297    -0.04100
C1098       C  0.85879595  0.91770625  0.61317863    -0.08600
C1099       C  0.90295750  0.90457823  0.59392216     0.05000
C1100       C  0.91993057  0.86194140  0.60414215    -0.03600
Br1101     Br  0.97659977  0.83766680  0.57644276    -0.03300
H1102       H  0.90738225  0.80174188  0.64171831     0.08900
H1103       H  0.84490795  0.95019846  0.60543571     0.06900
Br1104     Br  0.77424469  0.91383591  0.66874684    -0.03700
loop_ 
_geom_bond_atom_site_label_1 
_geom_bond_atom_site_label_2 
_geom_bond_distance 
_geom_bond_site_symmetry_2 
_ccdc_geom_bond_type 
O1            C9   1.247       .  A
O1          Co21   1.957   1_554  S
O2           C10   1.256       .  A
O2         Co160   1.965   1_554  S
O3           C11   1.285       .  A
O3         Co575   2.030   1_554  S
O4           C12   1.278       .  A
O4         Co162   1.900       .  S
O5           C11   1.263       .  A
O5         Co436   1.930   1_554  S
O6           C12   1.297       .  A
O6         Co297   2.056   1_554  S
O7           C10   1.266       .  A
O7         Co714   1.994   1_455  S
O8            C9   1.257       .  A
O8          Co23   2.001   1_554  S
C9          C133   1.479       .  S
C10          C63   1.471       .  S
C11          C80   1.467       .  S
C12          C93   1.487       .  S
O13          C26   1.249       .  A
O13        Co435   1.967       .  S
O14          C27   1.254       .  A
O14        Co298   1.953       .  S
O15          C28   1.286       .  A
O15        Co161   1.915       .  S
O16          C29   1.279       .  A
O16        Co576   2.012   1_455  S
O17          C29   1.258       .  A
O17         Co22   1.925       .  S
O18          C28   1.295       .  A
O18        Co159   2.059       .  S
O19          C26   1.259       .  A
O19         Co24   2.015       .  S
O20          C27   1.263       .  A
O20        Co713   1.988       .  S
Co21        O282   2.058   1_556  S
Co21        O427   1.958       .  S
Co21        O156   2.059       .  S
Co21         O25   2.099   1_556  S
Co22        O140   1.965       .  S
Co22        O419   1.926   1_545  S
Co22        O290   1.959   1_545  S
Co22        O991   2.011       .  S
Co23        O555   2.039   1_556  S
Co23        O153   1.915       .  S
Co23        O710   1.990       .  S
Co23         O25   1.925   1_556  S
Co24        O142   1.900       .  S
Co24        O697   1.996       .  S
Co24        O568   2.007       .  S
Co24        O439   1.931       .  S
O25        Co988   2.012       .  S
O25        Co438   1.934       .  S
C26         C110   1.491       .  S
C27         C120   1.474       .  S
C28         C103   1.488       .  S
C29          C73   1.439       .  S
O30          C38   1.294       .  A
O30         Co50   2.056       .  S
O31          C39   1.259       .  A
O31         Co51   1.927       .  S
O32          C40   1.263       .  A
O32         Co52   1.988       .  S
O33          C41   1.259       .  A
O33         Co53   2.012       .  S
O34          C40   1.254       .  A
O34         Co51   1.953       .  S
O35          C41   1.248       .  A
O35         Co50   1.968       .  S
O36          C39   1.277       .  A
O36         Co53   2.010       .  S
O37          C38   1.285       .  A
O37         Co52   1.918       .  S
C38         C100   1.488       .  S
C39          C70   1.439       .  S
C40         C123   1.474       .  S
C41         C113   1.491       .  S
O42          C55   1.297       .  A
O42         Co50   2.060       .  S
O43          C56   1.263       .  A
O43         Co51   1.930       .  S
O44          C57   1.256       .  A
O44         Co52   2.002       .  S
O45          C58   1.267       .  A
O45         Co53   1.995       .  S
O46          C58   1.256       .  A
O46         Co51   1.963       .  S
O47          C57   1.249       .  A
O47         Co50   1.959       .  S
O48          C55   1.277       .  A
O48         Co53   1.897       .  S
O49          C56   1.285       .  A
O49         Co52   2.030       .  S
Co50         O54   2.101       .  S
Co51         O54   2.011       .  S
Co52         O54   1.929       .  S
Co53         O54   1.931       .  S
C55          C90   1.487       .  S
C56          C83   1.467       .  S
C57         C130   1.481       .  S
C58          C60   1.470       .  S
C59          C60   1.398       .  A
C59          C64   1.396       .  A
C59          H66   1.088       .  S
C60          C61   1.416       .  A
C61          C62   1.397       .  A
C61         Br68   1.922       .  S
C62          C63   1.399       .  A
C62          H67   1.087       .  S
C63          C64   1.416       .  A
C64         Br65   1.922       .  S
C69          C70   1.394       .  A
C69          C74   1.388       .  A
C69          H76   1.084       .  S
C70          C71   1.409       .  A
C71          C72   1.387       .  A
C71         Br78   1.920       .  S
C72          C73   1.394       .  A
C72          H77   1.085       .  S
C73          C74   1.410       .  A
C74         Br75   1.920       .  S
C79          C80   1.412       .  A
C79          C84   1.393       .  A
C79          H86   1.080       .  S
C80          C81   1.402       .  A
C81          C82   1.393       .  A
C81         Br88   1.920       .  S
C82          C83   1.412       .  A
C82          H87   1.080       .  S
C83          C84   1.402       .  A
C84         Br85   1.920       .  S
C89          C90   1.412       .  A
C89          C94   1.398       .  A
C89          H96   1.081       .  S
C90          C91   1.412       .  A
C91          C92   1.396       .  A
C91         Br98   1.924       .  S
C92          C93   1.411       .  A
C92          H97   1.082       .  S
C93          C94   1.411       .  A
C94        Br233   1.923       .  S
Br95        C232   1.923       .  S
C99         C100   1.399       .  A
C99         C104   1.402       .  A
C99         H106   1.086       .  S
C100        C101   1.421       .  A
C101        C102   1.399       .  A
C101       Br108   1.921       .  S
C102        C103   1.398       .  A
C102        H107   1.086       .  S
C103        C104   1.422       .  A
C104       Br105   1.921       .  S
C109        C110   1.406       .  A
C109        C114   1.401       .  A
C109        H116   1.081       .  S
C110        C111   1.416       .  A
C111        C112   1.403       .  A
C111       Br118   1.920       .  S
C112        C113   1.406       .  A
C112        H117   1.081       .  S
C113        C114   1.415       .  A
C114       Br115   1.921       .  S
C119        C120   1.415       .  A
C119        C124   1.394       .  A
C119        H126   1.082       .  S
C120        C121   1.401       .  A
C121        C122   1.394       .  A
C121       Br128   1.919       .  S
C122        C123   1.415       .  A
C122        H127   1.082       .  S
C123        C124   1.401       .  A
C124       Br125   1.919       .  S
C129        C130   1.403       .  A
C129        C134   1.397       .  A
C129        H136   1.087       .  S
C130        C131   1.416       .  A
C131        C132   1.397       .  A
C131       Br138   1.920       .  S
C132        C133   1.403       .  A
C132        H137   1.087       .  S
C133        C134   1.414       .  A
C134       Br135   1.921       .  S
O139        C147   1.247       .  A
O139       Co159   1.957       .  S
O140        C148   1.256       .  A
O141        C149   1.285       .  A
O141       Co713   2.030       .  S
O142        C150   1.278       .  A
O143        C149   1.263       .  A
O143       Co298   1.930       .  S
O144        C150   1.297       .  A
O144       Co435   2.056       .  S
O145        C148   1.266       .  A
O145       Co576   1.994   1_455  S
O146        C147   1.257       .  A
O146       Co161   2.001       .  S
C147        C271   1.479       .  S
C148        C201   1.471       .  S
C149        C218   1.467       .  S
C150        C231   1.487       .  S
O151        C164   1.248       .  A
O151       Co297   1.967       .  S
O152        C165   1.254       .  A
O152       Co436   1.953       .  S
O153        C166   1.286       .  A
O154        C167   1.278       .  A
O154       Co714   2.012   1_456  S
O155        C167   1.258       .  A
O155       Co160   1.925       .  S
O156        C166   1.295       .  A
O157        C164   1.259       .  A
O157       Co162   2.015   1_556  S
O158        C165   1.263       .  A
O158       Co575   1.988       .  S
Co159       O420   2.058       .  S
Co159       O289   1.958       .  S
Co159       O163   2.099       .  S
Co160       O281   1.926   1_546  S
Co160       O428   1.959   1_545  S
Co160       O853   2.011   1_556  S
Co161       O693   2.039       .  S
Co161       O572   1.990       .  S
Co161       O163   1.925       .  S
Co162       O559   1.996       .  S
Co162       O706   2.007   1_554  S
Co162       O301   1.931   1_554  S
O163       Co850   2.012       .  S
O163       Co300   1.934       .  S
C164        C248   1.491       .  S
C165        C258   1.473       .  S
C166        C241   1.488       .  S
C167        C211   1.439       .  S
O168        C176   1.294       .  A
O168       Co188   2.056       .  S
O169        C177   1.259       .  A
O169       Co189   1.927       .  S
O170        C178   1.263       .  A
O170       Co190   1.988       .  S
O171        C179   1.259       .  A
O171       Co191   2.012       .  S
O172        C178   1.254       .  A
O172       Co189   1.953       .  S
O173        C179   1.248       .  A
O173       Co188   1.968       .  S
O174        C177   1.277       .  A
O174       Co191   2.010       .  S
O175        C176   1.285       .  A
O175       Co190   1.918       .  S
C176        C238   1.488       .  S
C177        C208   1.439       .  S
C178        C261   1.474       .  S
C179        C251   1.491       .  S
O180        C193   1.297       .  A
O180       Co188   2.060       .  S
O181        C194   1.263       .  A
O181       Co189   1.930       .  S
O182        C195   1.256       .  A
O182       Co190   2.002       .  S
O183        C196   1.267       .  A
O183       Co191   1.995       .  S
O184        C196   1.256       .  A
O184       Co189   1.963       .  S
O185        C195   1.249       .  A
O185       Co188   1.959       .  S
O186        C193   1.277       .  A
O186       Co191   1.897       .  S
O187        C194   1.285       .  A
O187       Co190   2.030       .  S
Co188       O192   2.101       .  S
Co189       O192   2.011       .  S
Co190       O192   1.929       .  S
Co191       O192   1.931       .  S
C193        C228   1.487       .  S
C194        C221   1.467       .  S
C195        C268   1.481       .  S
C196        C198   1.470       .  S
C197        C198   1.398       .  A
C197        C202   1.396       .  A
C197        H204   1.088       .  S
C198        C199   1.416       .  A
C199        C200   1.397       .  A
C199       Br206   1.922       .  S
C200        C201   1.399       .  A
C200        H205   1.087       .  S
C201        C202   1.415       .  A
C202       Br203   1.922       .  S
C207        C208   1.394       .  A
C207        C212   1.388       .  A
C207        H214   1.083       .  S
C208        C209   1.409       .  A
C209        C210   1.388       .  A
C209       Br216   1.920       .  S
C210        C211   1.394       .  A
C210        H215   1.084       .  S
C211        C212   1.410       .  A
C212       Br213   1.920       .  S
C217        C218   1.412       .  A
C217        C222   1.393       .  A
C217        H224   1.080       .  S
C218        C219   1.402       .  A
C219        C220   1.393       .  A
C219       Br226   1.920       .  S
C220        C221   1.412       .  A
C220        H225   1.080       .  S
C221        C222   1.402       .  A
C222       Br223   1.920       .  S
C227        C228   1.412       .  A
C227        C232   1.398       .  A
C227        H234   1.082       .  S
C228        C229   1.412       .  A
C229        C230   1.396       .  A
C229       Br236   1.924       .  S
C230        C231   1.411       .  A
C230        H235   1.082       .  S
C231        C232   1.411       .  A
C237        C238   1.399       .  A
C237        C242   1.402       .  A
C237        H244   1.086       .  S
C238        C239   1.421       .  A
C239        C240   1.399       .  A
C239       Br246   1.921       .  S
C240        C241   1.398       .  A
C240        H245   1.086       .  S
C241        C242   1.422       .  A
C242       Br243   1.921       .  S
C247        C248   1.406       .  A
C247        C252   1.401       .  A
C247        H254   1.081       .  S
C248        C249   1.416       .  A
C249        C250   1.403       .  A
C249       Br256   1.920       .  S
C250        C251   1.406       .  A
C250        H255   1.081       .  S
C251        C252   1.415       .  A
C252       Br253   1.921       .  S
C257        C258   1.415       .  A
C257        C262   1.394       .  A
C257        H264   1.081       .  S
C258        C259   1.401       .  A
C259        C260   1.394       .  A
C259       Br266   1.919       .  S
C260        C261   1.415       .  A
C260        H265   1.081       .  S
C261        C262   1.401       .  A
C262       Br263   1.919       .  S
C267        C268   1.403       .  A
C267        C272   1.397       .  A
C267        H274   1.087       .  S
C268        C269   1.416       .  A
C269        C270   1.397       .  A
C269       Br276   1.920       .  S
C270        C271   1.403       .  A
C270        H275   1.087       .  S
C271        C272   1.414       .  A
C272       Br273   1.921       .  S
O277        C285   1.249       .  A
O277       Co297   1.961   1_564  S
O278        C286   1.256       .  A
O278       Co436   1.963   1_554  S
O279        C287   1.287       .  A
O279       Co851   2.035   1_554  S
O280        C288   1.280       .  A
O280       Co438   1.905       .  S
O281        C287   1.263       .  A
O282        C288   1.298       .  A
O283        C286   1.267       .  A
O283       Co990   1.995   1_455  S
O284        C285   1.255       .  A
O284       Co299   1.998   1_554  S
C285        C409   1.479       .  S
C286        C339   1.470       .  S
C287        C356   1.470       .  S
C288        C369   1.491       .  S
O289        C302   1.246       .  A
O290        C303   1.253       .  A
O291        C304   1.285       .  A
O291       Co437   1.916       .  S
O292        C305   1.277       .  A
O292       Co852   2.010   1_455  S
O293        C305   1.259       .  A
O293       Co298   1.927       .  S
O294        C304   1.293       .  A
O294       Co435   2.051   1_565  S
O295        C302   1.258       .  A
O295       Co300   2.014       .  S
O296        C303   1.262       .  A
O296       Co989   1.990       .  S
Co297       O432   2.051   1_545  S
Co297       O301   2.099       .  S
Co298       O416   1.963       .  S
Co298       O715   2.011       .  S
Co299       O831   2.034   1_556  S
Co299       O429   1.916       .  S
Co299       O986   1.987       .  S
Co299       O301   1.926   1_565  S
Co300       O418   1.905       .  S
Co300       O973   1.997       .  S
Co300       O844   2.009       .  S
O301       Co712   2.010   1_556  S
C302        C386   1.486       .  S
C303        C396   1.475       .  S
C304        C379   1.483       .  S
C305        C349   1.439       .  S
O306        C314   1.294       .  A
O306       Co326   2.054       .  S
O307        C315   1.258       .  A
O307       Co327   1.925       .  S
O308        C316   1.262       .  A
O308       Co328   1.990       .  S
O309        C317   1.258       .  A
O309       Co329   2.011       .  S
O310        C316   1.253       .  A
O310       Co327   1.959       .  S
O311        C317   1.246       .  A
O311       Co326   1.962       .  S
O312        C315   1.279       .  A
O312       Co329   2.012       .  S
O313        C314   1.285       .  A
O313       Co328   1.912       .  S
C314        C376   1.483       .  S
C315        C346   1.439       .  S
C316        C399   1.475       .  S
C317        C389   1.486       .  S
O318        C331   1.297       .  A
O318       Co326   2.058       .  S
O319        C332   1.263       .  A
O319       Co327   1.926       .  S
O320        C333   1.257       .  A
O320       Co328   2.002       .  S
O321        C334   1.266       .  A
O321       Co329   1.994       .  S
O322        C334   1.256       .  A
O322       Co327   1.965       .  S
O323        C333   1.247       .  A
O323       Co326   1.956       .  S
O324        C331   1.280       .  A
O324       Co329   1.904       .  S
O325        C332   1.287       .  A
O325       Co328   2.035       .  S
Co326       O330   2.099       .  S
Co327       O330   2.011       .  S
Co328       O330   1.923       .  S
Co329       O330   1.931       .  S
C331        C366   1.491       .  S
C332        C359   1.470       .  S
C333        C406   1.479       .  S
C334        C336   1.471       .  S
C335        C336   1.399       .  A
C335        C340   1.397       .  A
C335        H342   1.086       .  S
C336        C337   1.416       .  A
C337        C338   1.396       .  A
C337       Br344   1.922       .  S
C338        C339   1.398       .  A
C338        H343   1.088       .  S
C339        C340   1.416       .  A
C340       Br341   1.922       .  S
C345        C346   1.394       .  A
C345        C350   1.388       .  A
C345        H352   1.084       .  S
C346        C347   1.410       .  A
C347        C348   1.388       .  A
C347       Br354   1.920       .  S
C348        C349   1.394       .  A
C348        H353   1.084       .  S
C349        C350   1.409       .  A
C350       Br351   1.920       .  S
C355        C356   1.413       .  A
C355        C360   1.393       .  A
C355        H362   1.079       .  S
C356        C357   1.402       .  A
C357        C358   1.393       .  A
C357       Br364   1.921       .  S
C358        C359   1.413       .  A
C358        H363   1.079       .  S
C359        C360   1.402       .  A
C360       Br361   1.921       .  S
C365        C366   1.413       .  A
C365        C370   1.399       .  A
C365        H372   1.081       .  S
C366        C367   1.412       .  A
C367        C368   1.398       .  A
C367       Br374   1.923       .  S
C368        C369   1.412       .  A
C368        H373   1.081       .  S
C369        C370   1.412       .  A
C370       Br509   1.923       .  S
Br371       C508   1.923       .  S
C375        C376   1.397       .  A
C375        C380   1.398       .  A
C375        H382   1.086       .  S
C376        C377   1.421       .  A
C377        C378   1.399       .  A
C377       Br384   1.921       .  S
C378        C379   1.398       .  A
C378        H383   1.086       .  S
C379        C380   1.421       .  A
C380       Br381   1.921       .  S
C385        C386   1.405       .  A
C385        C390   1.399       .  A
C385        H392   1.081       .  S
C386        C387   1.414       .  A
C387        C388   1.401       .  A
C387       Br394   1.920       .  S
C388        C389   1.406       .  A
C388        H393   1.081       .  S
C389        C390   1.414       .  A
C390       Br391   1.920       .  S
C395        C396   1.414       .  A
C395        C400   1.395       .  A
C395        H402   1.081       .  S
C396        C397   1.402       .  A
C397        C398   1.395       .  A
C397       Br404   1.918       .  S
C398        C399   1.414       .  A
C398        H403   1.081       .  S
C399        C400   1.402       .  A
C400       Br401   1.918       .  S
C405        C406   1.402       .  A
C405        C410   1.396       .  A
C405        H412   1.087       .  S
C406        C407   1.414       .  A
C407        C408   1.397       .  A
C407       Br414   1.919       .  S
C408        C409   1.403       .  A
C408        H413   1.087       .  S
C409        C410   1.416       .  A
C410       Br411   1.921       .  S
O415        C423   1.249       .  A
O415       Co435   1.961   1_565  S
O416        C424   1.256       .  A
O417        C425   1.287       .  A
O417       Co989   2.035       .  S
O418        C426   1.280       .  A
O419        C425   1.263       .  A
O420        C426   1.298       .  A
O421        C424   1.267       .  A
O421       Co852   1.995   1_455  S
O422        C423   1.255       .  A
O422       Co437   1.998       .  S
C423        C547   1.479       .  S
C424        C477   1.470       .  S
C425        C494   1.470       .  S
C426        C507   1.491       .  S
O427        C440   1.246       .  A
O428        C441   1.253       .  A
O429        C442   1.285       .  A
O430        C443   1.277       .  A
O430       Co990   2.010   1_456  S
O431        C443   1.259       .  A
O431       Co436   1.927       .  S
O432        C442   1.293       .  A
O433        C440   1.258       .  A
O433       Co438   2.014   1_556  S
O434        C441   1.262       .  A
O434       Co851   1.990       .  S
Co435       O439   2.099       .  S
Co436       O577   2.011   1_556  S
Co437       O969   2.034       .  S
Co437       O848   1.987       .  S
Co437       O439   1.926   1_565  S
Co438       O835   1.997       .  S
Co438       O982   2.009   1_554  S
O439       Co574   2.010       .  S
C440        C524   1.486       .  S
C441        C534   1.475       .  S
C442        C517   1.483       .  S
C443        C487   1.439       .  S
O444        C452   1.294       .  A
O444       Co464   2.054       .  S
O445        C453   1.258       .  A
O445       Co465   1.925       .  S
O446        C454   1.262       .  A
O446       Co466   1.990       .  S
O447        C455   1.258       .  A
O447       Co467   2.011       .  S
O448        C454   1.253       .  A
O448       Co465   1.959       .  S
O449        C455   1.246       .  A
O449       Co464   1.962       .  S
O450        C453   1.279       .  A
O450       Co467   2.012       .  S
O451        C452   1.285       .  A
O451       Co466   1.912       .  S
C452        C514   1.483       .  S
C453        C484   1.439       .  S
C454        C537   1.475       .  S
C455        C527   1.486       .  S
O456        C469   1.297       .  A
O456       Co464   2.058       .  S
O457        C470   1.263       .  A
O457       Co465   1.926       .  S
O458        C471   1.257       .  A
O458       Co466   2.002       .  S
O459        C472   1.266       .  A
O459       Co467   1.994       .  S
O460        C472   1.256       .  A
O460       Co465   1.965       .  S
O461        C471   1.247       .  A
O461       Co464   1.956       .  S
O462        C469   1.280       .  A
O462       Co467   1.904       .  S
O463        C470   1.287       .  A
O463       Co466   2.035       .  S
Co464       O468   2.099       .  S
Co465       O468   2.011       .  S
Co466       O468   1.923       .  S
Co467       O468   1.931       .  S
C469        C504   1.491       .  S
C470        C497   1.470       .  S
C471        C544   1.479       .  S
C472        C474   1.471       .  S
C473        C474   1.399       .  A
C473        C478   1.397       .  A
C473        H480   1.086       .  S
C474        C475   1.416       .  A
C475        C476   1.396       .  A
C475       Br482   1.922       .  S
C476        C477   1.398       .  A
C476        H481   1.087       .  S
C477        C478   1.416       .  A
C478       Br479   1.922       .  S
C483        C484   1.394       .  A
C483        C488   1.387       .  A
C483        H490   1.084       .  S
C484        C485   1.410       .  A
C485        C486   1.388       .  A
C485       Br492   1.920       .  S
C486        C487   1.394       .  A
C486        H491   1.084       .  S
C487        C488   1.409       .  A
C488       Br489   1.920       .  S
C493        C494   1.413       .  A
C493        C498   1.393       .  A
C493        H500   1.079       .  S
C494        C495   1.402       .  A
C495        C496   1.393       .  A
C495       Br502   1.921       .  S
C496        C497   1.413       .  A
C496        H501   1.079       .  S
C497        C498   1.402       .  A
C498       Br499   1.921       .  S
C503        C504   1.413       .  A
C503        C508   1.399       .  A
C503        H510   1.081       .  S
C504        C505   1.412       .  A
C505        C506   1.398       .  A
C505       Br512   1.923       .  S
C506        C507   1.412       .  A
C506        H511   1.081       .  S
C507        C508   1.412       .  A
C513        C514   1.397       .  A
C513        C518   1.398       .  A
C513        H520   1.086       .  S
C514        C515   1.421       .  A
C515        C516   1.399       .  A
C515       Br522   1.921       .  S
C516        C517   1.398       .  A
C516        H521   1.086       .  S
C517        C518   1.421       .  A
C518       Br519   1.921       .  S
C523        C524   1.405       .  A
C523        C528   1.399       .  A
C523        H530   1.081       .  S
C524        C525   1.414       .  A
C525        C526   1.401       .  A
C525       Br532   1.920       .  S
C526        C527   1.406       .  A
C526        H531   1.081       .  S
C527        C528   1.414       .  A
C528       Br529   1.920       .  S
C533        C534   1.414       .  A
C533        C538   1.395       .  A
C533        H540   1.081       .  S
C534        C535   1.402       .  A
C535        C536   1.395       .  A
C535       Br542   1.918       .  S
C536        C537   1.414       .  A
C536        H541   1.082       .  S
C537        C538   1.402       .  A
C538       Br539   1.918       .  S
C543        C544   1.402       .  A
C543        C548   1.396       .  A
C543        H550   1.086       .  S
C544        C545   1.414       .  A
C545        C546   1.397       .  A
C545       Br552   1.919       .  S
C546        C547   1.403       .  A
C546        H551   1.087       .  S
C547        C548   1.416       .  A
C548       Br549   1.921       .  S
O553        C561   1.249       .  A
O553       Co573   1.959       .  S
O554        C562   1.256       .  A
O554       Co712   1.964       .  S
O555        C563   1.288       .  A
O556        C564   1.280       .  A
O556       Co714   1.904       .  S
O557        C563   1.263       .  A
O557       Co988   1.924       .  S
O558        C564   1.297       .  A
O558       Co849   2.058   1_554  S
O559        C562   1.267       .  A
O560        C561   1.256       .  A
O560       Co575   2.002   1_654  S
C561        C685   1.481       .  S
C562        C615   1.470       .  S
C563        C632   1.469       .  S
C564        C645   1.491       .  S
O565        C578   1.246       .  A
O565       Co987   1.962       .  S
O566        C579   1.253       .  A
O566       Co850   1.958       .  S
O567        C580   1.285       .  A
O567       Co713   1.918   1_655  S
O568        C581   1.277       .  A
O569        C581   1.258       .  A
O569       Co574   1.920       .  S
O570        C580   1.294       .  A
O570       Co711   2.056       .  S
O571        C578   1.258       .  A
O571       Co576   2.011       .  S
O572        C579   1.262       .  A
Co573       O834   2.059       .  S
Co573       O979   1.968   1_554  S
Co573       O708   2.056   1_554  S
Co573       O577   2.101   1_655  S
Co574       O692   1.964       .  S
Co574       O971   1.927   1_545  S
Co574       O842   1.960   1_545  S
Co575       O705   1.918   1_455  S
Co575       O577   1.929   1_556  S
Co576       O694   1.904       .  S
Co576       O991   1.931   1_655  S
O577       Co990   1.931   1_455  S
C578        C662   1.486       .  S
C579        C672   1.479       .  S
C580        C655   1.488       .  S
C581        C625   1.439       .  S
O582        C590   1.295       .  A
O582       Co602   2.059       .  S
O583        C591   1.258       .  A
O583       Co603   1.921       .  S
O584        C592   1.262       .  A
O584       Co604   1.990       .  S
O585        C593   1.258       .  A
O585       Co605   2.014       .  S
O586        C592   1.253       .  A
O586       Co603   1.958       .  S
O587        C593   1.246       .  A
O587       Co602   1.958       .  S
O588        C591   1.278       .  A
O588       Co605   2.009       .  S
O589        C590   1.286       .  A
O589       Co604   1.915       .  S
C590        C652   1.488       .  S
C591        C622   1.439       .  S
C592        C675   1.479       .  S
C593        C665   1.486       .  S
O594        C607   1.298       .  A
O594       Co602   2.058       .  S
O595        C608   1.263       .  A
O595       Co603   1.924       .  S
O596        C609   1.257       .  A
O596       Co604   2.001       .  S
O597        C610   1.267       .  A
O597       Co605   1.996       .  S
O598        C610   1.255       .  A
O598       Co603   1.963       .  S
O599        C609   1.247       .  A
O599       Co602   1.957       .  S
O600        C607   1.280       .  A
O600       Co605   1.905       .  S
O601        C608   1.288       .  A
O601       Co604   2.039       .  S
Co602       O606   2.099       .  S
Co603       O606   2.012       .  S
Co604       O606   1.925       .  S
Co605       O606   1.934       .  S
C607        C642   1.491       .  S
C608        C635   1.469       .  S
C609        C682   1.479       .  S
C610        C612   1.472       .  S
C611        C612   1.399       .  A
C611        C616   1.398       .  A
C611        H618   1.086       .  S
C612        C613   1.417       .  A
C613        C614   1.397       .  A
C613       Br620   1.922       .  S
C614        C615   1.398       .  A
C614        H619   1.087       .  S
C615        C616   1.415       .  A
C616       Br617   1.922       .  S
C621        C622   1.392       .  A
C621        C626   1.386       .  A
C621        H628   1.084       .  S
C622        C623   1.411       .  A
C623        C624   1.386       .  A
C623       Br630   1.921       .  S
C624        C625   1.392       .  A
C624        H629   1.084       .  S
C625        C626   1.411       .  A
C626       Br627   1.921       .  S
C631        C632   1.413       .  A
C631        C636   1.394       .  A
C631        H638   1.080       .  S
C632        C633   1.402       .  A
C633        C634   1.394       .  A
C633       Br640   1.921       .  S
C634        C635   1.413       .  A
C634        H639   1.080       .  S
C635        C636   1.402       .  A
C636       Br637   1.921       .  S
C641        C642   1.412       .  A
C641        C646   1.398       .  A
C641        H648   1.082       .  S
C642        C643   1.412       .  A
C643        C644   1.399       .  A
C643       Br650   1.923       .  S
C644        C645   1.413       .  A
C644        H649   1.082       .  S
C645        C646   1.412       .  A
C646       Br785   1.923       .  S
Br647       C784   1.923       .  S
C651        C652   1.398       .  A
C651        C656   1.399       .  A
C651        H658   1.086       .  S
C652        C653   1.422       .  A
C653        C654   1.402       .  A
C653       Br660   1.921       .  S
C654        C655   1.399       .  A
C654        H659   1.086       .  S
C655        C656   1.421       .  A
C656       Br657   1.921       .  S
C661        C662   1.406       .  A
C661        C666   1.401       .  A
C661        H668   1.081       .  S
C662        C663   1.414       .  A
C663        C664   1.399       .  A
C663       Br670   1.920       .  S
C664        C665   1.405       .  A
C664        H669   1.081       .  S
C665        C666   1.414       .  A
C666       Br667   1.920       .  S
C671        C672   1.415       .  A
C671        C676   1.394       .  A
C671        H678   1.081       .  S
C672        C673   1.403       .  A
C673        C674   1.394       .  A
C673       Br680   1.919       .  S
C674        C675   1.415       .  A
C674        H679   1.081       .  S
C675        C676   1.403       .  A
C676       Br677   1.919       .  S
C681        C682   1.403       .  A
C681        C686   1.397       .  A
C681        H688   1.086       .  S
C682        C683   1.414       .  A
C683        C684   1.397       .  A
C683       Br690   1.921       .  S
C684        C685   1.403       .  A
C684        H689   1.087       .  S
C685        C686   1.416       .  A
C686       Br687   1.920       .  S
O691        C699   1.249       .  A
O691       Co711   1.959       .  S
O692        C700   1.256       .  A
O693        C701   1.288       .  A
O694        C702   1.280       .  A
O695        C701   1.263       .  A
O695       Co850   1.924       .  S
O696        C702   1.297       .  A
O696       Co987   2.058       .  S
O697        C700   1.267       .  A
O698        C699   1.256       .  A
O698       Co713   2.002   1_655  S
C699        C823   1.481       .  S
C700        C753   1.470       .  S
C701        C770   1.469       .  S
C702        C783   1.491       .  S
O703        C716   1.246       .  A
O703       Co849   1.962       .  S
O704        C717   1.253       .  A
O704       Co988   1.958   1_556  S
O705        C718   1.285       .  A
O706        C719   1.277       .  A
O707        C719   1.258       .  A
O707       Co712   1.921   1_556  S
O708        C718   1.294       .  A
O709        C716   1.258       .  A
O709       Co714   2.011   1_556  S
O710        C717   1.262       .  A
Co711       O972   2.059       .  S
Co711       O841   1.968       .  S
Co711       O715   2.101   1_655  S
Co712       O833   1.927   1_545  S
Co712       O980   1.960   1_544  S
Co713       O715   1.929       .  S
Co714       O853   1.931   1_655  S
O715       Co852   1.931   1_455  S
C716        C800   1.486       .  S
C717        C810   1.479       .  S
C718        C793   1.488       .  S
C719        C763   1.439       .  S
O720        C728   1.295       .  A
O720       Co740   2.059       .  S
O721        C729   1.258       .  A
O721       Co741   1.921       .  S
O722        C730   1.262       .  A
O722       Co742   1.990       .  S
O723        C731   1.258       .  A
O723       Co743   2.014       .  S
O724        C730   1.253       .  A
O724       Co741   1.958       .  S
O725        C731   1.246       .  A
O725       Co740   1.958       .  S
O726        C729   1.278       .  A
O726       Co743   2.009       .  S
O727        C728   1.286       .  A
O727       Co742   1.915       .  S
C728        C790   1.488       .  S
C729        C760   1.439       .  S
C730        C813   1.479       .  S
C731        C803   1.486       .  S
O732        C745   1.298       .  A
O732       Co740   2.058       .  S
O733        C746   1.263       .  A
O733       Co741   1.924       .  S
O734        C747   1.257       .  A
O734       Co742   2.001       .  S
O735        C748   1.267       .  A
O735       Co743   1.996       .  S
O736        C748   1.255       .  A
O736       Co741   1.963       .  S
O737        C747   1.247       .  A
O737       Co740   1.957       .  S
O738        C745   1.280       .  A
O738       Co743   1.905       .  S
O739        C746   1.288       .  A
O739       Co742   2.039       .  S
Co740       O744   2.099       .  S
Co741       O744   2.012       .  S
Co742       O744   1.925       .  S
Co743       O744   1.934       .  S
C745        C780   1.491       .  S
C746        C773   1.469       .  S
C747        C820   1.479       .  S
C748        C750   1.472       .  S
C749        C750   1.399       .  A
C749        C754   1.398       .  A
C749        H756   1.087       .  S
C750        C751   1.417       .  A
C751        C752   1.397       .  A
C751       Br758   1.922       .  S
C752        C753   1.398       .  A
C752        H757   1.087       .  S
C753        C754   1.415       .  A
C754       Br755   1.922       .  S
C759        C760   1.392       .  A
C759        C764   1.386       .  A
C759        H766   1.084       .  S
C760        C761   1.411       .  A
C761        C762   1.386       .  A
C761       Br768   1.921       .  S
C762        C763   1.392       .  A
C762        H767   1.084       .  S
C763        C764   1.411       .  A
C764       Br765   1.921       .  S
C769        C770   1.413       .  A
C769        C774   1.394       .  A
C769        H776   1.080       .  S
C770        C771   1.402       .  A
C771        C772   1.394       .  A
C771       Br778   1.921       .  S
C772        C773   1.413       .  A
C772        H777   1.080       .  S
C773        C774   1.402       .  A
C774       Br775   1.921       .  S
C779        C780   1.412       .  A
C779        C784   1.398       .  A
C779        H786   1.082       .  S
C780        C781   1.412       .  A
C781        C782   1.399       .  A
C781       Br788   1.923       .  S
C782        C783   1.413       .  A
C782        H787   1.082       .  S
C783        C784   1.412       .  A
C789        C790   1.398       .  A
C789        C794   1.399       .  A
C789        H796   1.086       .  S
C790        C791   1.422       .  A
C791        C792   1.402       .  A
C791       Br798   1.921       .  S
C792        C793   1.399       .  A
C792        H797   1.085       .  S
C793        C794   1.421       .  A
C794       Br795   1.921       .  S
C799        C800   1.406       .  A
C799        C804   1.401       .  A
C799        H806   1.081       .  S
C800        C801   1.414       .  A
C801        C802   1.399       .  A
C801       Br808   1.920       .  S
C802        C803   1.405       .  A
C802        H807   1.081       .  S
C803        C804   1.414       .  A
C804       Br805   1.920       .  S
C809        C810   1.415       .  A
C809        C814   1.394       .  A
C809        H816   1.081       .  S
C810        C811   1.403       .  A
C811        C812   1.394       .  A
C811       Br818   1.919       .  S
C812        C813   1.415       .  A
C812        H817   1.081       .  S
C813        C814   1.403       .  A
C814       Br815   1.919       .  S
C819        C820   1.403       .  A
C819        C824   1.397       .  A
C819        H826   1.087       .  S
C820        C821   1.414       .  A
C821        C822   1.397       .  A
C821       Br828   1.921       .  S
C822        C823   1.403       .  A
C822        H827   1.087       .  S
C823        C824   1.416       .  A
C824       Br825   1.920       .  S
O829        C837   1.247       .  A
O829       Co849   1.956   1_564  S
O830        C838   1.255       .  A
O830       Co988   1.963       .  S
O831        C839   1.286       .  A
O832        C840   1.277       .  A
O832       Co990   1.897       .  S
O833        C839   1.261       .  A
O834        C840   1.297       .  A
O835        C838   1.267       .  A
O836        C837   1.257       .  A
O836       Co851   2.002   1_654  S
C837        C961   1.479       .  S
C838        C891   1.472       .  S
C839        C908   1.467       .  S
C840        C921   1.487       .  S
O841        C854   1.248       .  A
O842        C855   1.255       .  A
O843        C856   1.285       .  A
O843       Co989   1.912   1_655  S
O844        C857   1.278       .  A
O845        C857   1.258       .  A
O845       Co850   1.921       .  S
O846        C856   1.294       .  A
O846       Co987   2.054   1_565  S
O847        C854   1.259       .  A
O847       Co852   2.012       .  S
O848        C855   1.263       .  A
Co849       O984   2.054   1_545  S
Co849       O853   2.099   1_656  S
Co850       O968   1.963       .  S
Co851       O981   1.912   1_455  S
Co851       O853   1.923   1_566  S
Co852       O970   1.897       .  S
C854        C938   1.491       .  S
C855        C948   1.476       .  S
C856        C931   1.483       .  S
C857        C901   1.439       .  S
O858        C866   1.293       .  A
O858       Co878   2.051       .  S
O859        C867   1.258       .  A
O859       Co879   1.920       .  S
O860        C868   1.263       .  A
O860       Co880   1.987       .  S
O861        C869   1.259       .  A
O861       Co881   2.014       .  S
O862        C868   1.255       .  A
O862       Co879   1.960       .  S
O863        C869   1.248       .  A
O863       Co878   1.967       .  S
O864        C867   1.277       .  A
O864       Co881   2.007       .  S
O865        C866   1.285       .  A
O865       Co880   1.916       .  S
C866        C928   1.483       .  S
C867        C898   1.439       .  S
C868        C951   1.476       .  S
C869        C941   1.491       .  S
O870        C883   1.297       .  A
O870       Co878   2.056       .  S
O871        C884   1.261       .  A
O871       Co879   1.927       .  S
O872        C885   1.255       .  A
O872       Co880   1.998       .  S
O873        C886   1.267       .  A
O873       Co881   1.996       .  S
O874        C886   1.256       .  A
O874       Co879   1.964       .  S
O875        C885   1.249       .  A
O875       Co878   1.961       .  S
O876        C883   1.278       .  A
O876       Co881   1.900       .  S
O877        C884   1.286       .  A
O877       Co880   2.034       .  S
Co878       O882   2.099       .  S
Co879       O882   2.010       .  S
Co880       O882   1.926       .  S
Co881       O882   1.931       .  S
C883        C918   1.487       .  S
C884        C911   1.467       .  S
C885        C958   1.479       .  S
C886        C888   1.470       .  S
C887        C888   1.398       .  A
C887        C892   1.397       .  A
C887        H894   1.087       .  S
C888        C889   1.415       .  A
C889        C890   1.398       .  A
C889       Br896   1.922       .  S
C890        C891   1.399       .  A
C890        H895   1.087       .  S
C891        C892   1.417       .  A
C892       Br893   1.922       .  S
C897        C898   1.392       .  A
C897        C902   1.386       .  A
C897        H904   1.084       .  S
C898        C899   1.411       .  A
C899        C900   1.386       .  A
C899       Br906   1.921       .  S
C900        C901   1.392       .  A
C900        H905   1.084       .  S
C901        C902   1.411       .  A
C902       Br903   1.921       .  S
C907        C908   1.412       .  A
C907        C912   1.393       .  A
C907        H914   1.081       .  S
C908        C909   1.402       .  A
C909        C910   1.393       .  A
C909       Br916   1.920       .  S
C910        C911   1.412       .  A
C910        H915   1.081       .  S
C911        C912   1.402       .  A
C912       Br913   1.920       .  S
C917        C918   1.411       .  A
C917        C922   1.396       .  A
C917        H924   1.082       .  S
C918        C919   1.411       .  A
C919        C920   1.398       .  A
C919       Br926   1.923       .  S
C920        C921   1.412       .  A
C920        H925   1.082       .  S
C921        C922   1.412       .  A
C922      Br1061   1.924       .  S
Br923      C1060   1.924       .  S
C927        C928   1.398       .  A
C927        C932   1.399       .  A
C927        H934   1.086       .  S
C928        C929   1.421       .  A
C929        C930   1.398       .  A
C929       Br936   1.921       .  S
C930        C931   1.397       .  A
C930        H935   1.086       .  S
C931        C932   1.421       .  A
C932       Br933   1.921       .  S
C937        C938   1.406       .  A
C937        C942   1.403       .  A
C937        H944   1.080       .  S
C938        C939   1.415       .  A
C939        C940   1.401       .  A
C939       Br946   1.921       .  S
C940        C941   1.406       .  A
C940        H945   1.080       .  S
C941        C942   1.416       .  A
C942       Br943   1.920       .  S
C947        C948   1.414       .  A
C947        C952   1.394       .  A
C947        H954   1.081       .  S
C948        C949   1.402       .  A
C949        C950   1.394       .  A
C949       Br956   1.918       .  S
C950        C951   1.414       .  A
C950        H955   1.081       .  S
C951        C952   1.402       .  A
C952       Br953   1.918       .  S
C957        C958   1.403       .  A
C957        C962   1.397       .  A
C957        H964   1.087       .  S
C958        C959   1.416       .  A
C959        C960   1.396       .  A
C959       Br966   1.921       .  S
C960        C961   1.402       .  A
C960        H965   1.086       .  S
C961        C962   1.414       .  A
C962       Br963   1.919       .  S
O967        C975   1.247       .  A
O967       Co987   1.956   1_565  S
O968        C976   1.255       .  A
O969        C977   1.286       .  A
O970        C978   1.277       .  A
O971        C977   1.261       .  A
O972        C978   1.297       .  A
O973        C976   1.267       .  A
O974        C975   1.257       .  A
O974       Co989   2.002   1_655  S
C975       C1099   1.479       .  S
C976       C1029   1.472       .  S
C977       C1046   1.467       .  S
C978       C1059   1.487       .  S
O979        C992   1.248       .  A
O980        C993   1.255       .  A
O981        C994   1.285       .  A
O982        C995   1.278       .  A
O983        C995   1.258       .  A
O983       Co988   1.921   1_556  S
O984        C994   1.294       .  A
O985        C992   1.259       .  A
O985       Co990   2.012   1_556  S
O986        C993   1.263       .  A
Co987       O991   2.099   1_655  S
Co989       O991   1.923   1_565  S
C992       C1076   1.491       .  S
C993       C1086   1.476       .  S
C994       C1069   1.483       .  S
C995       C1039   1.439       .  S
O996       C1004   1.293       .  A
O996      Co1016   2.051       .  S
O997       C1005   1.258       .  A
O997      Co1017   1.920       .  S
O998       C1006   1.263       .  A
O998      Co1018   1.987       .  S
O999       C1007   1.259       .  A
O999      Co1019   2.015       .  S
O1000      C1006   1.255       .  A
O1000     Co1017   1.960       .  S
O1001      C1007   1.248       .  A
O1001     Co1016   1.967       .  S
O1002      C1005   1.277       .  A
O1002     Co1019   2.007       .  S
O1003      C1004   1.285       .  A
O1003     Co1018   1.916       .  S
C1004      C1066   1.483       .  S
C1005      C1036   1.439       .  S
C1006      C1089   1.476       .  S
C1007      C1079   1.491       .  S
O1008      C1021   1.297       .  A
O1008     Co1016   2.056       .  S
O1009      C1022   1.261       .  A
O1009     Co1017   1.927       .  S
O1010      C1023   1.255       .  A
O1010     Co1018   1.998       .  S
O1011      C1024   1.267       .  A
O1011     Co1019   1.996       .  S
O1012      C1024   1.256       .  A
O1012     Co1017   1.964       .  S
O1013      C1023   1.249       .  A
O1013     Co1016   1.961       .  S
O1014      C1021   1.278       .  A
O1014     Co1019   1.900       .  S
O1015      C1022   1.286       .  A
O1015     Co1018   2.034       .  S
Co1016     O1020   2.099       .  S
Co1017     O1020   2.010       .  S
Co1018     O1020   1.926       .  S
Co1019     O1020   1.931       .  S
C1021      C1056   1.487       .  S
C1022      C1049   1.467       .  S
C1023      C1096   1.479       .  S
C1024      C1026   1.470       .  S
C1025      C1026   1.398       .  A
C1025      C1030   1.397       .  A
C1025      H1032   1.087       .  S
C1026      C1027   1.415       .  A
C1027      C1028   1.398       .  A
C1027     Br1034   1.922       .  S
C1028      C1029   1.399       .  A
C1028      H1033   1.087       .  S
C1029      C1030   1.417       .  A
C1030     Br1031   1.922       .  S
C1035      C1036   1.392       .  A
C1035      C1040   1.386       .  A
C1035      H1042   1.084       .  S
C1036      C1037   1.411       .  A
C1037      C1038   1.386       .  A
C1037     Br1044   1.921       .  S
C1038      C1039   1.392       .  A
C1038      H1043   1.084       .  S
C1039      C1040   1.411       .  A
C1040     Br1041   1.921       .  S
C1045      C1046   1.412       .  A
C1045      C1050   1.394       .  A
C1045      H1052   1.081       .  S
C1046      C1047   1.402       .  A
C1047      C1048   1.394       .  A
C1047     Br1054   1.920       .  S
C1048      C1049   1.412       .  A
C1048      H1053   1.081       .  S
C1049      C1050   1.402       .  A
C1050     Br1051   1.920       .  S
C1055      C1056   1.411       .  A
C1055      C1060   1.396       .  A
C1055      H1062   1.082       .  S
C1056      C1057   1.411       .  A
C1057      C1058   1.398       .  A
C1057     Br1064   1.923       .  S
C1058      C1059   1.412       .  A
C1058      H1063   1.082       .  S
C1059      C1060   1.412       .  A
C1065      C1066   1.398       .  A
C1065      C1070   1.399       .  A
C1065      H1072   1.086       .  S
C1066      C1067   1.421       .  A
C1067      C1068   1.398       .  A
C1067     Br1074   1.921       .  S
C1068      C1069   1.397       .  A
C1068      H1073   1.086       .  S
C1069      C1070   1.421       .  A
C1070     Br1071   1.921       .  S
C1075      C1076   1.406       .  A
C1075      C1080   1.403       .  A
C1075      H1082   1.080       .  S
C1076      C1077   1.415       .  A
C1077      C1078   1.401       .  A
C1077     Br1084   1.921       .  S
C1078      C1079   1.406       .  A
C1078      H1083   1.081       .  S
C1079      C1080   1.416       .  A
C1080     Br1081   1.920       .  S
C1085      C1086   1.414       .  A
C1085      C1090   1.394       .  A
C1085      H1092   1.081       .  S
C1086      C1087   1.402       .  A
C1087      C1088   1.394       .  A
C1087     Br1094   1.918       .  S
C1088      C1089   1.414       .  A
C1088      H1093   1.081       .  S
C1089      C1090   1.402       .  A
C1090     Br1091   1.918       .  S
C1095      C1096   1.403       .  A
C1095      C1100   1.397       .  A
C1095      H1102   1.087       .  S
C1096      C1097   1.416       .  A
C1097      C1098   1.396       .  A
C1097     Br1104   1.921       .  S
C1098      C1099   1.402       .  A
C1098      H1103   1.087       .  S
C1099      C1100   1.414       .  A
C1100     Br1101   1.919       .  S
