geometry optimzed in LAMMPS
_audit_creation_date              2020-11-30 
_audit_creation_method            'lammps2cif' 
_symmetry_space_group_name_H-M    'P1' 
_symmetry_Int_Tables_number       1 
_symmetry_cell_setting            triclinic 
loop_ 
_symmetry_equiv_pos_as_xyz 
  x,y,z 
_cell_length_a                    19.04931346 
_cell_length_b                    28.326688464308475 
_cell_length_c                    24.79255007593721 
_cell_angle_alpha                 91.0435991115103 
_cell_angle_beta                  91.19391923478648 
_cell_angle_gamma                 91.6416171347927 
loop_ 
_atom_site_label 
_atom_site_type_symbol 
_atom_site_fract_x 
_atom_site_fract_y 
_atom_site_fract_z 
_atom_site_charge 
C1          C  0.10171509  0.00689508  0.28397714     0.30700
C2          C  0.44586217  0.00774613  0.28096197     0.30700
C3          C  0.06156986  0.98643618  0.33328949    -0.05500
C4          C  0.06413063  0.05459905  0.28342356    -0.06300
C5          C  0.06024036  0.97925932  0.23938578    -0.06100
C6          C  0.48569279  0.98239757  0.32950051    -0.05500
C7          C  0.48893065  0.05611622  0.28203436    -0.06300
C8          C  0.48537312  0.98551602  0.23171230    -0.06100
C9          C  0.46515608  0.97376844  0.38185958    -0.31500
N10         N  0.01804758  0.98270541  0.41632660     0.15000
C11         C  0.07307541  0.99658056  0.38747357    -0.31500
H12         H  0.11318968  0.02018317  0.40457142     0.16900
C13         C  0.47298064  0.10034694  0.30121803    -0.30500
N14         N  0.53319765  0.12624287  0.31334168     0.13700
C15         C  0.08752007  0.09687465  0.30526357    -0.30500
C16         C  0.46340224  0.94617578  0.20253918    -0.30800
N17         N  0.51027143  0.91234017  0.20916296     0.14200
H18         H  0.41485360  0.94193996  0.18039676     0.16800
C19         C  0.06693638  0.93142125  0.23284879    -0.30800
H20         H  0.10409711  0.91018675  0.25424867     0.16800
H21         H  0.14203832  0.10463549  0.31443581     0.16800
H22         H  0.41549975  0.95884157  0.39394205     0.16900
H23         H  0.42009568  0.11197178  0.30655590     0.16800
C24         C  0.19507676  0.00514997  0.27872014     0.30700
C25         C  0.35206534  0.00757354  0.28050386     0.30700
C26         C  0.23688471  0.01438558  0.33261205    -0.05500
C27         C  0.23395077  0.95983531  0.25936838    -0.06300
C28         C  0.23508573  0.04050244  0.24181077    -0.06100
C29         C  0.31221065  0.02277577  0.33304616    -0.05500
C30         C  0.30935214  0.95894611  0.26651690    -0.06300
C31         C  0.31102971  0.04097433  0.24102052    -0.06100
C32         C  0.33268184  0.02199171  0.38695435    -0.31500
N33         N  0.28085588  0.00083542  0.41473968     0.15000
C34         C  0.22680170  0.99197734  0.38067508    -0.31500
H35         H  0.18846643  0.96431739  0.38796124     0.16900
C36         C  0.32744406  0.91578576  0.24420244    -0.30500
N37         N  0.27449668  0.89747536  0.21245751     0.13700
C38         C  0.22036004  0.92661306  0.21779901    -0.30500
C39         C  0.32956736  0.07522936  0.20409069    -0.30800
N40         N  0.27022037  0.09457203  0.18300430     0.14200
H41         H  0.38258186  0.08615102  0.19419079     0.16800
C42         C  0.21327725  0.07369710  0.20583222    -0.30800
H43         H  0.15939790  0.08277708  0.19744104     0.16800
H44         H  0.17809014  0.92668551  0.18841038     0.16800
H45         H  0.38175619  0.03539562  0.40416644     0.16900
H46         H  0.37664586  0.89961575  0.24865144     0.16800
C47         C  0.10323292  0.98705596  0.61109757     0.30700
C48         C  0.94609672  0.98591645  0.60957722     0.30700
C49         C  0.06160249  0.99375160  0.55705355    -0.05500
C50         C  0.06225888  0.94209185  0.63063512    -0.06300
C51         C  0.06463874  0.02330511  0.64847521    -0.06100
C52         C  0.98712263  0.00047753  0.55750620    -0.05500
C53         C  0.98720212  0.93890581  0.62338736    -0.06300
C54         C  0.98858601  0.02187128  0.64931733    -0.06100
C55         C  0.96765609  0.00508965  0.50408463    -0.31500
N56         N  0.01733601  0.98636060  0.47310829     0.15000
C57         C  0.07207724  0.97620169  0.50554116    -0.31500
H58         H  0.11373077  0.95397866  0.49268662     0.16900
C59         C  0.97013664  0.89307390  0.63883493    -0.30500
N60         N  0.02348939  0.87537229  0.66831299     0.13700
C61         C  0.07732442  0.90710340  0.66721654    -0.30500
C62         C  0.97124377  0.05766946  0.68562990    -0.30800
N63         N  0.03047149  0.08109453  0.70508784     0.14200
H64         H  0.41709916  0.06819252  0.69449367     0.16800
C65         C  0.08689573  0.05944008  0.68394280    -0.30800
H66         H  0.14075223  0.06949717  0.69405717     0.16800
H67         H  0.12298085  0.90554966  0.69335932     0.16800
H68         H  0.42235799  0.02579614  0.48981276     0.16900
H69         H  0.42558499  0.87231970  0.62444144     0.16800
C70         C  0.19617413  0.98813657  0.60581470     0.30700
C71         C  0.35174509  0.98388075  0.60762693     0.30700
C72         C  0.23420605  0.97875967  0.55139345    -0.05500
C73         C  0.23991609  0.03325659  0.62177582    -0.06300
C74         C  0.23256729  0.94982863  0.63856559    -0.06100
C75         C  0.30903816  0.96981374  0.55307539    -0.05500
C76         C  0.31606913  0.03175882  0.62019859    -0.04300
C77         C  0.30818739  0.95217312  0.64835695    -0.06100
C78         C  0.32826295  0.96867114  0.49970216    -0.31500
N79         N  0.27908919  0.99007506  0.46991986     0.15000
C80         C  0.22446235  0.99901496  0.50154612    -0.31500
H81         H  0.18313564  0.02232486  0.49002380     0.16900
C82         C  0.33845383  0.07658311  0.60626680    -0.30500
N83         N  0.28268848  0.10462515  0.60158054     0.13700
C84         C  0.22345560  0.07861455  0.60863490    -0.30500
C85         C  0.32249218  0.90637489  0.66240606    -0.30800
N86         N  0.26989632  0.87636634  0.64646020     0.14200
H87         H  0.36443334  0.89660347  0.68934488     0.16800
C88         C  0.21745821  0.90221171  0.62884572    -0.30800
H89         H  0.17410619  0.88746317  0.60452730     0.16800
H90         H  0.17124838  0.09096874  0.60071721     0.16800
H91         H  0.37341792  0.95197956  0.48339621     0.16900
H92         H  0.39179130  0.08791080  0.59798740     0.16800
O93         O  0.38317004  0.49253157  0.98447479    -0.80200
O94         O  0.18375219  0.52763766  0.02415764    -0.64900
O95         O  0.51025006  0.49983473  0.96822091    -1.11500
C96         C  0.01993929  0.38009092  0.10390669     1.06700
O97         O  0.21517599  0.45386932  0.01957190    -0.78100
O98         O  0.12218732  0.37282686  0.00358293    -0.65700
Ni99       Ni  0.43649970  0.54106392  0.95843717     1.34900
C100        C  0.07448039  0.37020467  0.96611802     0.85400
O101        O  0.10021374  0.57967822  0.95414142    -0.78600
O102        O  0.49012889  0.58798645  0.92354440    -0.88900
C103        C  0.19635259  0.49028409  0.99672644     0.85000
O104        O  0.44666950  0.57154673  0.02779573    -0.67100
O105        O  0.08506769  0.39019630  0.10746983    -0.86400
C106        C  0.99988829  0.58267514  0.05877597     0.85800
C107        C  0.05448635  0.59811375  0.92246322     1.07400
H108        H  0.06578607  0.47983158  0.08248546     0.39200
O109        O  0.07743003  0.46740767  0.04733696    -1.09000
O110        O  0.53209083  0.40314560  0.96251322    -0.65700
Ni111      Ni  0.49351213  0.44464846  0.01531599     1.26300
O112        O  0.05893566  0.56328355  0.05534069    -0.65900
O113        O  0.47995901  0.39456472  0.06622718    -0.78200
C114        C  0.39094140  0.45617391  0.95489444     0.85200
O115        O  0.41099279  0.42134592  0.97923488    -0.65400
Ni116      Ni  0.14750201  0.42096673  0.06092120     1.27400
Ni117      Ni  0.09217922  0.52207205  0.00004553     1.26100
H118        H  0.52504434  0.48886904  0.93336224     0.39800
O119        O  0.42503142  0.49666645  0.87305868    -0.80200
O120        O  0.15710689  0.51729974  0.91419736    -0.64900
O121        O  0.29690683  0.50975409  0.89328800    -1.11500
C122        C  0.22932817  0.39103875  0.76370861     1.06700
O123        O  0.14947116  0.44188041  0.92447611    -0.78100
O124        O  0.19867955  0.36518703  0.87599745    -0.65700
Ni125      Ni  0.38016297  0.54795551  0.90111615     1.34900
C126        C  0.24482448  0.37091273  0.91313267     0.85400
O127        O  0.22758165  0.60045867  0.90215877    -0.78600
O128        O  0.33698153  0.59938421  0.93618108    -0.88900
C129        C  0.16563470  0.48262110  0.94275163     0.85000
O130        O  0.37628644  0.57758797  0.83236072    -0.67100
O131        O  0.16625385  0.39899548  0.77847902    -0.86400
C132        C  0.32775737  0.58070762  0.79674642     0.85800
C133        C  0.27723730  0.61760892  0.93411181     1.07400
H134        H  0.20586833  0.47855009  0.79111347     0.39200
O135        O  0.20917849  0.47384018  0.82956675    -1.09000
O136        O  0.27480021  0.41165062  0.91412993    -0.65700
Ni137      Ni  0.29537991  0.45037055  0.84836461     1.26300
O138        O  0.26738780  0.56136148  0.80140572    -0.65900
O139        O  0.28221079  0.39811500  0.79668725    -0.78200
C140        C  0.40982380  0.45853512  0.89644663     0.85200
O141        O  0.38458432  0.42723120  0.86613240    -0.65400
Ni142      Ni  0.14974572  0.42132796  0.85015224     1.27400
Ni143      Ni  0.21676779  0.53795481  0.86189689     1.26100
H144        H  0.28608189  0.50260535  0.92939306     0.39800
C145        C  0.30222923  0.63960317  0.66085712    -0.04800
C146        C  0.32320706  0.68638926  0.67511260     0.09400
C147        C  0.35900959  0.69556246  0.72489159    -0.02100
C148        C  0.36411338  0.65989589  0.76304582    -0.00400
C149        C  0.33832110  0.61356791  0.75108140    -0.04000
C150        C  0.31078092  0.60298700  0.69855129     0.03000
C151        C  0.28745576  0.72781617  0.65078272     0.09800
C152        C  0.36916288  0.74441805  0.74289831     0.35700
C153        C  0.28846717  0.55497371  0.68424969     0.39200
C154        C  0.23908427  0.75064663  0.68438547    -0.04400
C155        C  0.23421388  0.79999454  0.68354101     0.02800
C156        C  0.27006893  0.82571281  0.64436221    -0.04000
C157        C  0.30636743  0.80168477  0.60363350    -0.00200
C158        C  0.31817122  0.75290030  0.60834167    -0.02800
C159        C  0.21188352  0.72429962  0.72926432     0.36500
C160        C  0.33347488  0.82766878  0.55845404     0.40100
C161        C  0.20261286  0.82506453  0.72779709     0.39200
C162        C  0.36677075  0.72976899  0.57318539     0.36200
C163        C  0.26522707  0.63034626  0.61000279     0.36800
C164        C  0.38972350  0.67297745  0.81655058     0.40100
N165        N  0.17938708  0.84550805  0.76374876    -0.38000
N166        N  0.19556052  0.69891401  0.76295697    -0.39600
N167        N  0.35478690  0.84859323  0.52231879    -0.37300
N168        N  0.40595772  0.71144381  0.54519140    -0.39700
N169        N  0.36634643  0.78373022  0.75582966    -0.39500
N170        N  0.41086752  0.68506894  0.85859848    -0.37100
N171        N  0.27098916  0.51654163  0.67287982    -0.38200
N172        N  0.23534332  0.62327763  0.56941116    -0.39800
C173        C  0.19755934  0.32006468  0.63486422    -0.04800
C174        C  0.26665476  0.30509733  0.62684003     0.09400
C175        C  0.32303636  0.33398732  0.64675467    -0.02100
C176        C  0.31128143  0.36668919  0.68891575    -0.00400
C177        C  0.24210021  0.37190693  0.70802133    -0.04000
C178        C  0.18576957  0.35577986  0.67366984     0.03000
C179        C  0.27914428  0.25395938  0.61599993     0.09800
C180        C  0.39358517  0.32431648  0.62973590     0.35700
C181        C  0.11636423  0.37476459  0.67866318     0.39200
C182        C  0.26266878  0.23186774  0.56552622    -0.04400
C183        C  0.26587430  0.18220920  0.55984859     0.02800
C184        C  0.28619268  0.15510160  0.60427307    -0.04000
C185        C  0.30391447  0.17714854  0.65397247    -0.00200
C186        C  0.30239204  0.22624689  0.65956392    -0.02800
C187        C  0.24223871  0.26006942  0.51995883     0.36500
C188        C  0.31702032  0.14872981  0.70099401     0.40100
C189        C  0.24517663  0.15843995  0.50958417     0.39200
C190        C  0.32380141  0.24774433  0.71102732     0.36200
C191        C  0.13837910  0.29538571  0.60839195     0.36800
C192        C  0.37011019  0.39387281  0.71259967     0.40100
N193        N  0.22813306  0.13901244  0.46976871    -0.38000
N194        N  0.22564230  0.28274199  0.48374335    -0.39600
N195        N  0.32565773  0.12651527  0.73911032    -0.37300
N196        N  0.34227225  0.26472599  0.75181336    -0.39700
N197        N  0.44955102  0.31578524  0.61598078    -0.39500
N198        N  0.41682058  0.41585573  0.73148960    -0.37100
N199        N  0.06164987  0.39113125  0.68211446    -0.38200
N200        N  0.09102327  0.27576571  0.58722976    -0.39800
C201        C  0.08750066  0.71476634  0.85045132    -0.04800
C202        C  0.05668490  0.70473071  0.79805806     0.09400
C203        C  0.04344592  0.65553984  0.78540124    -0.02100
C204        C  0.05550411  0.62032750  0.82470038    -0.00400
C205        C  0.07268324  0.63267900  0.87896687    -0.04000
C206        C  0.08869304  0.68019471  0.89129520     0.03000
C207        C  0.03953935  0.74654886  0.75999830     0.09800
C208        C  0.01194296  0.63920762  0.73460398     0.35700
C209        C  0.10003546  0.69333286  0.94726076     0.39200
C210        C  0.05350202  0.74760587  0.70298393    -0.04400
C211        C  0.04548771  0.78968921  0.67305611     0.02800
C212        C  0.02354081  0.83147352  0.69777672    -0.04000
C213        C  0.00586902  0.83080281  0.75234026    -0.00200
C214        C  0.01149684  0.78893594  0.78274475    -0.02800
C215        C  0.08002497  0.70774274  0.67313765     0.36500
C216        C  0.47778666  0.87340408  0.77426440     0.40100
C217        C  0.06317227  0.79111263  0.61643165     0.39200
C218        C  0.48048852  0.78938932  0.83445122     0.36200
C219        C  0.11949823  0.76083063  0.86192543     0.36800
C220        C  0.54780708  0.57115264  0.80905797     0.40100
N221        N  0.07760710  0.79231456  0.57135944    -0.38000
N222        N  0.10256764  0.67754982  0.64718630    -0.39600
N223        N  0.45484299  0.90729073  0.79276167    -0.37300
N224        N  0.45543753  0.79016482  0.87659549    -0.39700
N225        N  0.48765273  0.62463325  0.69385072    -0.39500
N226        N  0.54226501  0.53156313  0.79689909    -0.37100
N227        N  0.10732421  0.70058015  0.99303964    -0.38200
N228        N  0.14347130  0.79848530  0.86844737    -0.39800
C229        C  0.03480321  0.29583794  0.83360485    -0.04800
C230        C  0.05268239  0.24967648  0.84860319     0.09400
C231        C  0.08052126  0.24407049  0.90118797    -0.02100
C232        C  0.08292092  0.28215265  0.93975809    -0.00400
C233        C  0.06869513  0.32893262  0.92465673    -0.04000
C234        C  0.04432517  0.33501620  0.87037717     0.03000
C235        C  0.04357418  0.20672533  0.80960947     0.09800
C236        C  0.11072489  0.19910878  0.91281066     0.35700
C237        C  0.53215473  0.38213551  0.85147168     0.39200
C238        C  0.08171770  0.20391412  0.76140112    -0.04400
C239        C  0.07375554  0.16424062  0.72566009     0.02800
C240        C  0.03358354  0.12361333  0.73993355    -0.04000
C241        C  0.99728714  0.12541532  0.78911096    -0.00200
C242        C  0.00014858  0.16702393  0.82243091    -0.02800
C243        C  0.13185248  0.24122729  0.74973377     0.36500
C244        C  0.45288947  0.08628027  0.80381616     0.40100
C245        C  0.10270088  0.16715651  0.67237130     0.39200
C246        C  0.45665687  0.17020569  0.86995697     0.36200
C247        C  0.50373634  0.30353050  0.78159044     0.36800
C248        C  0.09115722  0.27286183  0.99628126     0.40100
N249        N  0.12416684  0.17116390  0.62937896    -0.38000
N250        N  0.17188116  0.27154461  0.74194549    -0.39600
N251        N  0.41997371  0.05345196  0.81633613    -0.37300
N252        N  0.42527347  0.17171293  0.90930302    -0.39700
N253        N  0.13410181  0.16203987  0.91671794    -0.39500
N254        N  0.09453523  0.26778171  0.04237705    -0.37100
N255        N  0.52474238  0.41887846  0.83290859    -0.38200
N256        N  0.48101080  0.30860377  0.73859129    -0.39800
C257        C  0.25888555  0.74501614  0.99536023    -0.04800
C258        C  0.27795641  0.73985882  0.05099443     0.09400
C259        C  0.29419061  0.69291934  0.06635663    -0.02100
C260        C  0.28502072  0.65348464  0.02973583    -0.00400
C261        C  0.26907077  0.65935048  0.97394454    -0.04000
C262        C  0.26177198  0.70649185  0.95729643     0.03000
C263        C  0.27871232  0.78200859  0.09313037     0.09800
C264        C  0.32332780  0.68409932  0.11964329     0.35700
C265        C  0.26308651  0.71675451  0.90076104     0.39200
C266        C  0.24669476  0.77675183  0.14468156    -0.04400
C267        C  0.24873840  0.81385841  0.18434047     0.02800
C268        C  0.27782314  0.85863944  0.17312084    -0.04000
C269        C  0.30410928  0.86613096  0.12133834    -0.00200
C270        C  0.30781498  0.82840871  0.08273452    -0.02800
C271        C  0.20667982  0.73417478  0.15638506     0.36500
C272        C  0.32309802  0.91399079  0.10626723     0.40100
C273        C  0.21831011  0.80674965  0.23676677     0.39200
C274        C  0.34048964  0.84009580  0.03232333     0.36200
C275        C  0.23135543  0.78913626  0.97697226     0.36800
C276        C  0.29676251  0.60656704  0.04997242     0.40100
N277        N  0.19415612  0.80134309  0.27872988    -0.38000
N278        N  0.17661493  0.69927905  0.16526093    -0.39600
N279        N  0.33745946  0.95205203  0.09329783    -0.37300
N280        N  0.36528100  0.85209286  0.99236671    -0.39700
N281        N  0.34537371  0.67572294  0.16212910    -0.39500
N282        N  0.30720135  0.56993869  0.06792370    -0.37100
N283        N  0.26676472  0.72712985  0.85609635    -0.38200
N284        N  0.20935433  0.82508226  0.96440154    -0.39800
C285        C  0.26198650  0.24634982  0.98110977    -0.04800
C286        C  0.25179074  0.25609773  0.03696844     0.09400
C287        C  0.24570735  0.30454821  0.05061255    -0.02100
C288        C  0.26240663  0.34050286  0.01325565    -0.00400
C289        C  0.25767698  0.33179569  0.95620117    -0.04000
C290        C  0.25811768  0.28285951  0.94143702     0.03000
C291        C  0.25008834  0.21614050  0.07964167     0.09800
C292        C  0.21366744  0.31862435  0.10062392     0.35700
C293        C  0.25719778  0.26930525  0.88519301     0.39200
C294        C  0.28850401  0.21910578  0.13014528    -0.04400
C295        C  0.29381345  0.17903647  0.16372338     0.02800
C296        C  0.26670535  0.13450877  0.14698192    -0.04000
C297        C  0.22533936  0.13159670  0.09954798    -0.00200
C298        C  0.21145112  0.17266978  0.06975278    -0.02800
C299        C  0.31534171  0.26354863  0.15258649     0.36500
C300        C  0.19277480  0.08645562  0.08334653     0.40100
C301        C  0.32046801  0.18363882  0.21855807     0.39200
C302        C  0.14538658  0.17163593  0.04036467     0.36200
C303        C  0.27599038  0.19844967  0.96408832     0.36800
C304        C  0.29624038  0.38190602  0.03739567     0.40100
N305        N  0.33955611  0.18496703  0.26305524    -0.38000
N306        N  0.33296944  0.29873791  0.17390092    -0.39600
N307        N  0.16667836  0.05044847  0.07062722    -0.37300
N308        N  0.08879768  0.16734903  0.02272395    -0.39700
N309        N  0.18775268  0.32970393  0.14051199    -0.39500
N310        N  0.32421897  0.41200206  0.06259874    -0.37100
N311        N  0.25544409  0.25697076  0.84056771    -0.38200
N312        N  0.28632340  0.15980627  0.95134274    -0.39800
C313        C  0.04910968  0.80136400  0.13712184    -0.04800
C314        C  0.01054701  0.76683111  0.16611226     0.09400
C315        C  0.47272289  0.78198915  0.21202199    -0.02100
C316        C  0.47779090  0.82967707  0.22895405    -0.00400
C317        C  0.00508837  0.86357838  0.19324049    -0.04000
C318        C  0.04112934  0.84936134  0.14782651     0.03000
C319        C  0.00178489  0.71742869  0.14324148     0.09800
C320        C  0.42973692  0.74927693  0.24224008     0.35700
C321        C  0.07239274  0.88488394  0.11337963     0.39200
C322        C  0.02219517  0.67680526  0.17185885    -0.04400
C323        C  0.02107785  0.63178829  0.14543656     0.02800
C324        C  0.99509820  0.62670108  0.09182564    -0.04000
C325        C  0.47172418  0.66762774  0.06363188    -0.00200
C326        C  0.47488672  0.71211794  0.08855072    -0.02800
C327        C  0.04855195  0.68144194  0.22705134     0.36500
C328        C  0.45115902  0.66555533  0.00729857     0.40100
C329        C  0.04921815  0.59142157  0.17251536     0.39200
C330        C  0.45925627  0.75201306  0.05511893     0.36200
C331        C  0.09285396  0.78867577  0.09303660     0.36800
C332        C  0.46174968  0.84277625  0.28399726     0.40100
N333        N  0.07284448  0.55946003  0.19404501    -0.38000
N334        N  0.06946145  0.68513837  0.27114129    -0.39600
N335        N  0.43487027  0.66845549  0.96256502    -0.37300
N336        N  0.45427879  0.78156225  0.02400954    -0.39700
N337        N  0.39535635  0.72376580  0.26718501    -0.39500
N338        N  0.44986428  0.85330877  0.32813255    -0.37100
N339        N  0.09711910  0.91340945  0.08621819    -0.38200
N340        N  0.12553332  0.78060170  0.05567378    -0.39800
C341        C  0.00442027  0.34259875  0.24563916    -0.04800
C342        C  0.00533417  0.29341494  0.23729102     0.09400
C343        C  0.48529867  0.27702875  0.18802262    -0.02100
C344        C  0.47950717  0.30642403  0.14313887    -0.00400
C345        C  0.99255921  0.35235723  0.14836417    -0.04000
C346        C  0.99905015  0.37213318  0.20095302     0.03000
C347        C  0.02125357  0.26176119  0.28255269     0.09800
C348        C  0.48055748  0.22613111  0.18042180     0.35700
C349        C  0.00254149  0.42300819  0.20856244     0.39200
C350        C  0.96712560  0.24385682  0.31468887    -0.04400
C351        C  0.47578281  0.20067638  0.33965547     0.02800
C352        C  0.03741738  0.17481642  0.33052236    -0.04000
C353        C  0.09781408  0.20179981  0.31631198    -0.00200
C354        C  0.08911054  0.24422807  0.28894582    -0.02800
C355        C  0.90212946  0.26890339  0.31881591     0.36500
C356        C  0.16756171  0.18838044  0.33299688     0.40100
C357        C  0.42593719  0.17975055  0.37613668     0.39200
C358        C  0.14908756  0.26914804  0.26686740     0.36200
C359        C  0.01175562  0.36265816  0.29973633     0.36800
C360        C  0.45746016  0.28735331  0.09060577     0.40100
N361        N  0.38658256  0.16297524  0.40567687    -0.38000
N362        N  0.34437936  0.28629618  0.32833927    -0.39600
N363        N  0.22340193  0.17838574  0.34711747    -0.37300
N364        N  0.19771056  0.28893198  0.25019513    -0.39700
N365        N  0.47700100  0.18550652  0.17451578    -0.39500
N366        N  0.43717489  0.27268034  0.04909239    -0.37100
N367        N  0.00485560  0.46360930  0.21461026    -0.38200
N368        N  0.01692014  0.37861770  0.34298204    -0.39800
C369        C  0.60212386  0.00784871  0.28349684     0.30700
C370        C  0.94567969  0.00625775  0.28170230     0.30700
C371        C  0.56174798  0.98888486  0.33330772    -0.05500
C372        C  0.56490822  0.05571476  0.28140806    -0.06300
C373        C  0.56046142  0.97938601  0.23968601    -0.06100
C374        C  0.98548189  0.97989394  0.32946950    -0.05500
C375        C  0.98830153  0.05475742  0.28446202    -0.06300
C376        C  0.98501441  0.98515569  0.23174239    -0.06100
C377        C  0.96485704  0.97040392  0.38167490    -0.31500
N378        N  0.51816479  0.98692337  0.41628258     0.15000
C379        C  0.57327488  0.00024439  0.38720521    -0.31500
H380        H  0.61411035  0.02354143  0.40389290     0.16900
C381        C  0.97229730  0.09850026  0.30531437    -0.30500
N382        N  0.03253738  0.12444819  0.31734420     0.13700
C383        C  0.58822842  0.09827798  0.30271403    -0.30500
C384        C  0.96308622  0.94587545  0.20227660    -0.30800
N385        N  0.01035976  0.91220573  0.20834776     0.14200
H386        H  0.91443814  0.94162466  0.18006000     0.16800
C387        C  0.56668143  0.93143097  0.23402771    -0.30800
H388        H  0.60371534  0.91021985  0.25560136     0.16800
H389        H  0.64235016  0.10557793  0.31368601     0.16800
H390        H  0.91471476  0.95611024  0.39358958     0.16900
H391        H  0.91943049  0.10969853  0.31166011     0.16800
C392        C  0.69543274  0.00523214  0.27856918     0.30700
C393        C  0.85220582  0.00618546  0.28088528     0.30700
C394        C  0.73711974  0.01379603  0.33276109    -0.05500
C395        C  0.73343050  0.95949545  0.25914183    -0.06300
C396        C  0.73652783  0.04031363  0.24177998    -0.06100
C397        C  0.81251746  0.02138509  0.33335546    -0.05500
C398        C  0.80879246  0.95795317  0.26628433    -0.06300
C399        C  0.81238232  0.03998773  0.24141666    -0.06100
C400        C  0.83307759  0.02028024  0.38719498    -0.31500
N401        N  0.78069321  0.99994581  0.41512315     0.15000
C402        C  0.72628979  0.99174147  0.38108029    -0.31500
H403        H  0.68667982  0.96500303  0.38877156     0.16900
C404        C  0.82624992  0.91483242  0.24340991    -0.30500
N405        N  0.77277625  0.89675035  0.21201650     0.13700
C406        C  0.71916685  0.92632354  0.21756433    -0.30500
C407        C  0.83241568  0.07327163  0.20387246    -0.30800
N408        N  0.77397586  0.09301777  0.18192112     0.14200
H409        H  0.88585495  0.08317118  0.19401235     0.16800
C410        C  0.71614366  0.07313363  0.20471028    -0.30800
H411        H  0.66263596  0.08253417  0.19541121     0.16800
H412        H  0.67678556  0.92674174  0.18831490     0.16800
H413        H  0.88263303  0.03292643  0.40422637     0.16900
H414        H  0.87546434  0.89862616  0.24695395     0.16800
C415        C  0.60309861  0.98821779  0.61144271     0.30700
C416        C  0.44582715  0.98637851  0.60926751     0.30700
C417        C  0.56153482  0.99530393  0.55729029    -0.05500
C418        C  0.56229141  0.94299738  0.63043266    -0.06300
C419        C  0.56386477  0.02412978  0.64890747    -0.06100
C420        C  0.48692960  0.00156909  0.55760921    -0.05500
C421        C  0.48738378  0.93942615  0.62266436    -0.06300
C422        C  0.48774062  0.02244907  0.64929464    -0.06100
C423        C  0.46764189  0.00780661  0.50442422    -0.31500
N424        N  0.51782217  0.99025501  0.47306165     0.15000
C425        C  0.57234738  0.97920603  0.50526462    -0.31500
H426        H  0.61354038  0.95686236  0.49188111     0.16900
C427        C  0.47091743  0.89314610  0.63700339    -0.30500
N428        N  0.52419637  0.87548649  0.66666972     0.13700
C429        C  0.57723510  0.90785886  0.66683383    -0.30500
C430        C  0.46976381  0.05887897  0.68457225    -0.30800
N431        N  0.52865115  0.08261470  0.70424971     0.14200
H432        H  0.91879342  0.06671752  0.69655887     0.16800
C433        C  0.58545836  0.06075974  0.68395201    -0.30800
H434        H  0.63914721  0.07102099  0.69434074     0.16800
H435        H  0.62220327  0.90660636  0.69374821     0.16800
H436        H  0.92308670  0.02356004  0.48904823     0.16900
H437        H  0.92432711  0.87247284  0.62713334     0.16800
C438        C  0.69627480  0.98927709  0.60657762     0.30700
C439        C  0.85198472  0.98405960  0.60836512     0.30700
C440        C  0.73424680  0.97966973  0.55224930    -0.05500
C441        C  0.74080549  0.03414353  0.62273493    -0.06300
C442        C  0.73246970  0.95089853  0.63957347    -0.06100
C443        C  0.80879468  0.97006436  0.55392735    -0.05500
C444        C  0.81692362  0.03210204  0.62109990    -0.04300
C445        C  0.80807292  0.95309232  0.64951357    -0.06100
C446        C  0.82755427  0.96793278  0.50043071    -0.31500
N447        N  0.77883667  0.98962505  0.47045898     0.15000
C448        C  0.72495231  0.99983222  0.50229125    -0.31500
H449        H  0.68452661  0.02382792  0.49075327     0.16900
C450        C  0.84043912  0.07710406  0.60921778    -0.30500
N451        N  0.78529572  0.10574422  0.60586063     0.13700
C452        C  0.72534193  0.08005067  0.61141774    -0.30500
C453        C  0.82210942  0.90768654  0.66490300    -0.30800
N454        N  0.76950586  0.87758342  0.64932967     0.14200
H455        H  0.86427201  0.89824993  0.69182861     0.16800
C456        C  0.71756431  0.90320908  0.63039027    -0.30800
H457        H  0.67487650  0.88819079  0.60558702     0.16800
H458        H  0.67353293  0.09302822  0.60348061     0.16800
H459        H  0.87196316  0.95032992  0.48415441     0.16900
H460        H  0.89387567  0.08814673  0.60089279     0.16800
O461        O  0.88295434  0.49208719  0.98502653    -0.80200
O462        O  0.68376503  0.52828337  0.02353962    -0.64900
O463        O  0.00999656  0.49938560  0.96886559    -1.11500
C464        C  0.51967646  0.38211359  0.10518780     1.06700
O465        O  0.71522021  0.45447215  0.01990918    -0.78100
O466        O  0.62248693  0.37307759  0.00503606    -0.65700
Ni467      Ni  0.93633516  0.54063937  0.95912499     1.34900
C468        C  0.57518376  0.37040771  0.96723769     0.85400
O469        O  0.60061550  0.57986332  0.95294415    -0.78600
O470        O  0.98994205  0.58742780  0.92411460    -0.88900
C471        C  0.69645587  0.49068155  0.99657155     0.85000
O472        O  0.94704475  0.57118879  0.02849318    -0.67100
O473        O  0.58492430  0.39195701  0.10886419    -0.86400
C474        C  0.49954816  0.58338393  0.05783269     0.85800
C475        C  0.55472371  0.59856092  0.92164810     1.07400
H476        H  0.56554068  0.48118581  0.08224786     0.39200
O477        O  0.57743701  0.46845109  0.04729772    -1.09000
O478        O  0.03102165  0.40273785  0.96190624    -0.65700
Ni479      Ni  0.99318893  0.44384228  0.01545839     1.26300
O480        O  0.55888536  0.56438090  0.05420040    -0.65900
O481        O  0.97971714  0.39321748  0.06564150    -0.78200
C482        C  0.89069614  0.45571558  0.95540581     0.85200
O483        O  0.91030377  0.42083643  0.97977662    -0.65400
Ni484      Ni  0.64748306  0.42206322  0.06172700     1.27400
Ni485      Ni  0.59232723  0.52267707  0.99938876     1.26100
H486        H  0.02494447  0.48862553  0.93397709     0.39800
O487        O  0.92574040  0.49598933  0.87370726    -0.80200
O488        O  0.65724577  0.51689919  0.91355676    -0.64900
O489        O  0.79737019  0.50913051  0.89318181    -1.11500
C490        C  0.72986618  0.39024025  0.76375622     1.06700
O491        O  0.65074157  0.44151863  0.92455460    -0.78100
O492        O  0.69934552  0.36445765  0.87587730    -0.65700
Ni493      Ni  0.88064196  0.54727295  0.90137799     1.34900
C494        C  0.74570851  0.37014006  0.91281979     0.85400
O495        O  0.72801595  0.60000311  0.90124908    -0.78600
O496        O  0.83718341  0.59891701  0.93571417    -0.88900
C497        C  0.66593909  0.48250113  0.94256924     0.85000
O498        O  0.87747271  0.57663540  0.83267297    -0.67100
O499        O  0.66685189  0.39824320  0.77864776    -0.86400
C500        C  0.82915049  0.58004671  0.79701038     0.85800
C501        C  0.77754983  0.61727302  0.93319969     1.07400
H502        H  0.70671781  0.47773416  0.79079678     0.39200
O503        O  0.70999415  0.47314708  0.82927391    -1.09000
O504        O  0.77544594  0.41094209  0.91394539    -0.65700
Ni505      Ni  0.79611075  0.44971546  0.84829382     1.26300
O506        O  0.76875964  0.56057213  0.80110867    -0.65900
O507        O  0.78296585  0.39740942  0.79656657    -0.78200
C508        C  0.91015425  0.45793226  0.89703213     0.85200
O509        O  0.88519611  0.42662211  0.86655131    -0.65400
Ni510      Ni  0.65062083  0.42073458  0.85024559     1.27400
Ni511      Ni  0.71746200  0.53734399  0.86136645     1.26100
H512        H  0.78631813  0.50197456  0.92924810     0.39800
C513        C  0.80549746  0.64119823  0.66246369    -0.04800
C514        C  0.82500733  0.68786550  0.67833174     0.09400
C515        C  0.85961301  0.69639375  0.72864329    -0.02100
C516        C  0.86495154  0.65996147  0.76569436    -0.00400
C517        C  0.83991377  0.61372361  0.75232348    -0.04000
C518        C  0.81350175  0.60394043  0.69935088     0.03000
C519        C  0.78954730  0.72944330  0.65431583     0.09800
C520        C  0.86841860  0.74497238  0.74809238     0.35700
C521        C  0.79206377  0.55606535  0.68371013     0.39200
C522        C  0.74036650  0.75188856  0.68759450    -0.04400
C523        C  0.73476225  0.80118371  0.68668073     0.02800
C524        C  0.77018751  0.82699858  0.64738849    -0.04000
C525        C  0.80723938  0.80320585  0.60696509    -0.00200
C526        C  0.82075477  0.75478844  0.61233069    -0.02800
C527        C  0.71288547  0.72522101  0.73213861     0.36500
C528        C  0.83351069  0.82913117  0.56147852     0.40100
C529        C  0.70247179  0.82622865  0.73064897     0.39200
C530        C  0.87253911  0.73271240  0.57909843     0.36200
C531        C  0.77114615  0.63254049  0.61047083     0.36800
C532        C  0.89076898  0.67206600  0.81933351     0.40100
N533        N  0.67870684  0.84695120  0.76616705    -0.38000
N534        N  0.69670566  0.69933731  0.76538498    -0.39600
N535        N  0.85419283  0.85002219  0.52511491    -0.37300
N536        N  0.91465194  0.71529975  0.55298120    -0.39700
N537        N  0.86457962  0.78397072  0.76208659    -0.39500
N538        N  0.91252056  0.68373521  0.86131554    -0.37100
N539        N  0.77524078  0.51774102  0.67130936    -0.38200
N540        N  0.74362489  0.62587820  0.56886910    -0.39800
C541        C  0.69941668  0.31919567  0.63442889    -0.04800
C542        C  0.76917485  0.30621794  0.62538525     0.09400
C543        C  0.82407900  0.33660476  0.64475236    -0.02100
C544        C  0.81140078  0.36827288  0.68774381    -0.00400
C545        C  0.74239056  0.37126453  0.70797351    -0.04000
C546        C  0.68620595  0.35373262  0.67426660     0.03000
C547        C  0.78413836  0.25530081  0.61553341     0.09800
C548        C  0.89457152  0.32996653  0.62578487     0.35700
C549        C  0.61553881  0.37014391  0.68069235     0.39200
C550        C  0.76730450  0.23202028  0.56581455    -0.04400
C551        C  0.77007291  0.18228043  0.56175028     0.02800
C552        C  0.78998935  0.15621084  0.60705253    -0.04000
C553        C  0.80966125  0.17943804  0.65570404    -0.00200
C554        C  0.80855847  0.22869751  0.65967833    -0.02800
C555        C  0.74689086  0.25906987  0.51933435     0.36500
C556        C  0.82490377  0.15225805  0.70332461     0.40100
C557        C  0.75016003  0.15736370  0.51201000     0.39200
C558        C  0.83092862  0.25151723  0.71020993     0.36200
C559        C  0.64130348  0.29431737  0.60677741     0.36800
C560        C  0.86931430  0.39656355  0.71112422     0.40100
N561        N  0.73411205  0.13698364  0.47257519    -0.38000
N562        N  0.73038029  0.28070020  0.48225054    -0.39600
N563        N  0.83558596  0.13126527  0.74206908    -0.37300
N564        N  0.84990235  0.26965686  0.75024565    -0.39700
N565        N  0.95069423  0.32445887  0.61036836    -0.39500
N566        N  0.91549315  0.41928519  0.72965688    -0.37100
N567        N  0.55963800  0.38445191  0.68503092    -0.38200
N568        N  0.59469873  0.27487034  0.58442785    -0.39800
C569        C  0.58739865  0.71537640  0.84983736    -0.04800
C570        C  0.55694807  0.70527238  0.79733782     0.09400
C571        C  0.54378103  0.65609580  0.78466557    -0.02100
C572        C  0.55585410  0.62088914  0.82395873    -0.00400
C573        C  0.57283544  0.63323179  0.87824088    -0.04000
C574        C  0.58869934  0.68076777  0.89063493     0.03000
C575        C  0.54037325  0.74696437  0.75899922     0.09800
C576        C  0.51256981  0.63982789  0.73373939     0.35700
C577        C  0.60023407  0.69388345  0.94658677     0.39200
C578        C  0.55579600  0.74796948  0.70224473    -0.04400
C579        C  0.54813793  0.78997797  0.67205640     0.02800
C580        C  0.52446564  0.83159635  0.69619622    -0.04000
C581        C  0.50579497  0.83094531  0.75054139    -0.00200
C582        C  0.51151711  0.78924917  0.78123247    -0.02800
C583        C  0.58348373  0.70805609  0.67313607     0.36500
C584        C  0.97928312  0.87345123  0.77667614     0.40100
C585        C  0.56818284  0.79154092  0.61594575     0.39200
C586        C  0.98124153  0.78902759  0.83627672     0.36200
C587        C  0.61921384  0.76147021  0.86141142     0.36800
C588        C  0.04676759  0.57060742  0.80984777     0.40100
N589        N  0.58466823  0.79288691  0.57132435    -0.38000
N590        N  0.60706230  0.67769469  0.64805158    -0.39600
N591        N  0.95754380  0.90748885  0.79575123    -0.37300
N592        N  0.95664898  0.78961191  0.87859342    -0.39700
N593        N  0.98672085  0.62389156  0.69487833    -0.39500
N594        N  0.04047955  0.53107756  0.79756888    -0.37100
N595        N  0.60765599  0.70121466  0.99234017    -0.38200
N596        N  0.64309143  0.79912081  0.86815891    -0.39800
C597        C  0.53320724  0.29630915  0.83489477    -0.04800
C598        C  0.55208172  0.25027902  0.84908806     0.09400
C599        C  0.58137152  0.24441132  0.90108923    -0.02100
C600        C  0.58420060  0.28217247  0.94016544    -0.00400
C601        C  0.56946786  0.32912625  0.92564535    -0.04000
C602        C  0.54407904  0.33540637  0.87158182     0.03000
C603        C  0.54240482  0.20773478  0.80962777     0.09800
C604        C  0.61225205  0.19944862  0.91138124     0.35700
C605        C  0.03198542  0.38168476  0.85025531     0.39200
C606        C  0.58129000  0.20486618  0.76180475    -0.04400
C607        C  0.57279862  0.16555714  0.72554307     0.02800
C608        C  0.53127846  0.12525093  0.73900232    -0.04000
C609        C  0.49378222  0.12730996  0.78766105    -0.00200
C610        C  0.49748932  0.16858708  0.82152961    -0.02800
C611        C  0.63323116  0.24142772  0.75137057     0.36500
C612        C  0.95838422  0.08384237  0.80621616     0.40100
C613        C  0.60266423  0.16861624  0.67256351     0.39200
C614        C  0.95990422  0.16847749  0.87116965     0.36200
C615        C  0.00891462  0.30350585  0.77925663     0.36800
C616        C  0.59243181  0.27198266  0.99651267     0.40100
N617        N  0.62493843  0.17282774  0.62984260    -0.38000
N618        N  0.67531606  0.27067641  0.74443161    -0.39600
N619        N  0.92716331  0.05054491  0.81951855    -0.37300
N620        N  0.92931795  0.16995588  0.91089446    -0.39700
N621        N  0.63619466  0.16244074  0.91371298    -0.39500
N622        N  0.59541959  0.26538922  0.04235284    -0.37100
N623        N  0.02409234  0.41837445  0.83169078    -0.38200
N624        N  0.98995222  0.30952889  0.73538494    -0.39800
C625        C  0.75862113  0.74442836  0.99509852    -0.04800
C626        C  0.77761122  0.73901257  0.05066714     0.09400
C627        C  0.79385957  0.69199245  0.06575027    -0.02100
C628        C  0.78475278  0.65275940  0.02883905    -0.00400
C629        C  0.76912480  0.65893721  0.97304721    -0.04000
C630        C  0.76205159  0.70622098  0.95673371     0.03000
C631        C  0.77812651  0.78107260  0.09288434     0.09800
C632        C  0.82292238  0.68284793  0.11898773     0.35700
C633        C  0.76472665  0.71731773  0.90048197     0.39200
C634        C  0.74583512  0.77573773  0.14430061    -0.04400
C635        C  0.74695852  0.81300602  0.18377921     0.02800
C636        C  0.77562176  0.85793979  0.17252915    -0.04000
C637        C  0.80186749  0.86546726  0.12075692    -0.00200
C638        C  0.80660536  0.82763237  0.08239919    -0.02800
C639        C  0.70639766  0.73290029  0.15598670     0.36500
C640        C  0.81931257  0.91350014  0.10543923     0.40100
C641        C  0.71559357  0.80588626  0.23585248     0.39200
C642        C  0.83980387  0.83926254  0.03216000     0.36200
C643        C  0.73042626  0.78848057  0.97707580     0.36800
C644        C  0.79681216  0.60573446  0.04865567     0.40100
N645        N  0.69041289  0.80026323  0.27740859    -0.38000
N646        N  0.67691212  0.69778075  0.16486395    -0.39600
N647        N  0.83200397  0.95178480  0.09241386    -0.37300
N648        N  0.86497214  0.85099259  0.99223926    -0.39700
N649        N  0.84487306  0.67413058  0.16140888    -0.39500
N650        N  0.80764011  0.56896853  0.06609177    -0.37100
N651        N  0.76975347  0.72916251  0.85641864    -0.38200
N652        N  0.70787137  0.82435997  0.96486470    -0.39800
C653        C  0.76509694  0.24534007  0.97965868    -0.04800
C654        C  0.75497424  0.25462119  0.03566284     0.09400
C655        C  0.74790086  0.30292116  0.04969624    -0.02100
C656        C  0.76330766  0.33931893  0.01259318    -0.00400
C657        C  0.75912845  0.33089535  0.95553054    -0.04000
C658        C  0.76101692  0.28212048  0.94033137     0.03000
C659        C  0.75458035  0.21437427  0.07804326     0.09800
C660        C  0.71544012  0.31649412  0.09966453     0.35700
C661        C  0.76278327  0.26907949  0.88399344     0.39200
C662        C  0.79310908  0.21739283  0.12851350    -0.04400
C663        C  0.79959888  0.17712703  0.16168640     0.02800
C664        C  0.77211476  0.13259907  0.14524701    -0.04000
C665        C  0.73194918  0.12941855  0.09729267    -0.00200
C666        C  0.71736681  0.17046524  0.06765012    -0.02800
C667        C  0.81870723  0.26195724  0.15155202     0.36500
C668        C  0.70215484  0.08379055  0.07993506     0.40100
C669        C  0.82928091  0.18139920  0.21558302     0.39200
C670        C  0.65156674  0.16890386  0.03797008     0.36200
C671        C  0.77896624  0.19758460  0.96196695     0.36800
C672        C  0.79525231  0.38124440  0.03703162     0.40100
N673        N  0.85139285  0.18244827  0.25925676    -0.38000
N674        N  0.83581600  0.29693924  0.17355787    -0.39600
N675        N  0.67876689  0.04728669  0.06610672    -0.37300
N676        N  0.59517706  0.16426575  0.02007886    -0.39700
N677        N  0.68875086  0.32784948  0.13910659    -0.39500
N678        N  0.82226335  0.41152430  0.06255041    -0.37100
N679        N  0.76404082  0.25694811  0.83935528    -0.38200
N680        N  0.78882945  0.15906526  0.94845148    -0.39800
C681        C  0.54761159  0.80180999  0.13678626    -0.04800
C682        C  0.50844410  0.76735156  0.16531734     0.09400
C683        C  0.97426893  0.78165160  0.21243276    -0.02100
C684        C  0.97829125  0.82951171  0.22878262    -0.00400
C685        C  0.50478948  0.86383230  0.19367390    -0.04000
C686        C  0.54047584  0.84976918  0.14802678     0.03000
C687        C  0.49995739  0.71805253  0.14221231     0.09800
C688        C  0.93117619  0.74891833  0.24253802     0.35700
C689        C  0.57282010  0.88530151  0.11419090     0.39200
C690        C  0.52075134  0.67757149  0.17081121    -0.04400
C691        C  0.51983483  0.63255444  0.14447616     0.02800
C692        C  0.49432545  0.62739656  0.09073043    -0.04000
C693        C  0.97231127  0.66699647  0.06499428    -0.00200
C694        C  0.97591782  0.71149001  0.08984137    -0.02800
C695        C  0.54801003  0.68252940  0.22574477     0.36500
C696        C  0.95098369  0.66493568  0.00893546     0.40100
C697        C  0.54800639  0.59235226  0.17181260     0.39200
C698        C  0.95968433  0.75141084  0.05660911     0.36200
C699        C  0.59198885  0.78900359  0.09315968     0.36800
C700        C  0.96041188  0.84289737  0.28335957     0.40100
N701        N  0.57183401  0.56071301  0.19381342    -0.38000
N702        N  0.56999870  0.68666790  0.26950308    -0.39600
N703        N  0.93399528  0.66764385  0.96437591    -0.37300
N704        N  0.95424370  0.78114004  0.02577886    -0.39700
N705        N  0.89668811  0.72329239  0.26724768    -0.39500
N706        N  0.94647376  0.85344985  0.32708776    -0.37100
N707        N  0.59862819  0.91377887  0.08753639    -0.38200
N708        N  0.62535592  0.78061935  0.05626954    -0.39800
C709        C  0.49843945  0.34646862  0.24775532    -0.04800
C710        C  0.49728050  0.29716507  0.24020919     0.09400
C711        C  0.99221436  0.27365042  0.18504825    -0.02100
C712        C  0.98265648  0.30348934  0.14091255    -0.00400
C713        C  0.49134891  0.35517619  0.15001626    -0.04000
C714        C  0.49648696  0.37553184  0.20242876     0.03000
C715        C  0.51602723  0.26576135  0.28506436     0.09800
C716        C  0.98971619  0.22281966  0.17659195     0.35700
C717        C  0.50210544  0.42640902  0.20932186     0.39200
C718        C  0.46387689  0.24511995  0.31701385    -0.04400
C719        C  0.97588227  0.20017453  0.33998789     0.02800
C720        C  0.53735459  0.17661550  0.32649956    -0.04000
C721        C  0.59603349  0.20483413  0.31098333    -0.00200
C722        C  0.58464448  0.24907797  0.28834975    -0.02800
C723        C  0.39756568  0.26810346  0.32349795     0.36500
C724        C  0.66739519  0.19054274  0.32060442     0.40100
C725        C  0.92271741  0.18148722  0.37523097     0.39200
C726        C  0.64253458  0.27648895  0.26662807     0.36200
C727        C  0.50536613  0.36706531  0.30162488     0.36800
C728        C  0.95807420  0.28477354  0.08882482     0.40100
N729        N  0.88019155  0.16675151  0.40356836    -0.38000
N730        N  0.85038392  0.28913260  0.32176116    -0.39600
N731        N  0.72483157  0.18020180  0.32918583    -0.37300
N732        N  0.68946898  0.29833084  0.25035476    -0.39700
N733        N  0.98804260  0.18226097  0.16985432    -0.39500
N734        N  0.93598244  0.27026318  0.04774389    -0.37100
N735        N  0.50602897  0.46702116  0.21492475    -0.38200
N736        N  0.51038480  0.38364894  0.34458653    -0.39800
loop_ 
_geom_bond_atom_site_label_1 
_geom_bond_atom_site_label_2 
_geom_bond_distance 
_geom_bond_site_symmetry_2 
_ccdc_geom_bond_type 
C1            C3   1.567   1_545  S
C1            C5   1.535   1_545  S
C1            C4   1.547       .  S
C1           C24   1.788       .  S
C2            C6   1.601   1_545  S
C2            C8   1.578   1_545  S
C2            C7   1.576       .  S
C2           C25   1.786       .  S
C3           C11   1.380       .  A
C3          C374   1.457   1_455  A
C4           C15   1.364       .  A
C4          C375   1.445   1_455  A
C5           C19   1.372       .  A
C5          C376   1.456   1_455  A
C6            C9   1.387       .  A
C6          C371   1.456       .  A
C7           C13   1.376       .  A
C7          C372   1.448       .  A
C8           C16   1.368       .  A
C8          C373   1.456       .  A
C9           H22   1.076       .  S
C9          N378   1.348       .  A
N10          C11   1.335       .  A
N10         C377   1.349   1_455  A
N10          N56   1.410       .  S
C11          H12   1.076   1_565  S
C13          H23   1.079       .  S
C13          N14   1.369       .  A
N14         C383   1.359       .  A
N14         C720   1.457       .  S
C15          H21   1.074       .  S
C15         N382   1.359       .  A
C16          H18   1.068       .  S
C16          N17   1.338       .  A
N17         C387   1.324       .  A
N17         C685   1.420       .  S
C19          H20   1.079       .  S
C19         N385   1.324       .  A
C24          C26   1.555       .  S
C24          C28   1.562       .  S
C24          C27   1.573   1_545  S
C25          C29   1.581       .  S
C25          C31   1.584       .  S
C25          C30   1.608   1_545  S
C26          C34   1.375   1_545  A
C26          C29   1.448       .  A
C27          C38   1.398       .  A
C27          C30   1.445       .  A
C28          C42   1.375       .  A
C28          C31   1.447       .  A
C29          C32   1.385       .  A
C30          C36   1.388       .  A
C31          C39   1.390       .  A
C32          H45   1.076       .  S
C32          N33   1.348       .  A
N33          C34   1.333   1_545  A
N33          N79   1.408   1_545  S
C34          H35   1.076       .  S
C36          H46   1.060       .  S
C36          N37   1.352       .  A
N37          C38   1.346       .  A
N37         C268   1.460       .  S
C38          H44   1.075       .  S
C39          H41   1.082       .  S
C39          N40   1.369       .  A
N40          C42   1.359       .  A
N40         C296   1.456       .  S
C42          H43   1.082       .  S
C47          C49   1.560       .  S
C47          C51   1.578   1_565  S
C47          C50   1.564       .  S
C47          C70   1.777       .  S
C48          C52   1.578   1_565  S
C48          C54   1.596   1_565  S
C48          C53   1.603       .  S
C48         C439   1.792       .  S
C49          C57   1.382       .  A
C49          C52   1.437   1_465  A
C50          C61   1.388       .  A
C50          C53   1.437   1_455  A
C51          C65   1.388       .  A
C51          C54   1.449   1_455  A
C52          C55   1.377       .  A
C53          C59   1.392       .  A
C54          C62   1.395       .  A
C55         H436   1.074       .  S
C55          N56   1.346   1_645  A
N56          C57   1.344       .  A
C57          H58   1.077       .  S
C59         H437   1.068       .  S
C59          N60   1.353   1_655  A
N60          C61   1.345       .  A
N60         C212   1.454       .  S
C61          H67   1.076       .  S
C62         H432   1.077       .  S
C62          N63   1.367   1_655  A
N63          C65   1.362       .  A
N63         C240   1.468       .  S
H64         C430   1.077       .  S
C65          H66   1.080       .  S
H68         C423   1.074       .  S
H69         C427   1.069       .  S
C70          C72   1.567       .  S
C70          C74   1.539       .  S
C70          C73   1.546   1_565  S
C71          C75   1.602       .  S
C71          C77   1.594       .  S
C71          C76   1.564   1_565  S
C71         C416   1.791       .  S
C72          C80   1.383       .  A
C72          C75   1.455       .  A
C73          C84   1.375       .  A
C73          C76   1.454       .  A
C74          C88   1.387       .  A
C74          C77   1.455       .  A
C75          C78   1.380       .  A
C76          C82   1.380       .  A
C77          C85   1.383       .  A
C78          H91   1.076       .  S
C78          N79   1.345       .  A
N79          C80   1.343       .  A
C80          H81   1.079   1_565  S
C82          H92   1.082       .  S
C82          N83   1.349       .  A
N83          C84   1.346       .  A
N83         C184   1.430       .  S
C84          H90   1.079       .  S
C85          H87   1.076       .  S
C85          N86   1.344       .  A
N86          C88   1.327       .  A
N86         C156   1.435       .  S
C88          H89   1.082       .  S
O93         Ni99   1.822       .  S
O93         C114   1.267       .  A
O94        Ni117   1.834       .  S
O94         C103   1.279   1_554  A
O95         Ni99   1.867       .  S
O95        Ni111   1.991   1_556  S
O95        Ni485   1.826       .  S
O95         H118   0.963       .  S
C96         O105   1.266       .  A
C96         O481   1.274   1_455  A
C96         C345   1.462   1_455  S
O97        Ni116   1.898       .  S
O97         C103   1.244   1_554  A
O98        Ni116   1.994       .  S
O98         C100   1.286   1_554  A
Ni99        O102   1.887       .  S
Ni99        O104   1.914   1_556  S
C100        O478   1.261       .  A
C100        C233   1.543       .  S
O101       Ni117   2.010   1_556  S
O101        C107   1.289       .  A
O102        C475   1.260       .  A
C103        C129   1.459       .  S
O104        C474   1.274       .  A
O105       Ni116   1.882       .  S
C106        O112   1.270   1_655  A
C106        O472   1.274       .  A
C106        C324   1.486       .  S
C107        O470   1.259   1_455  A
C107        C205   1.509       .  S
H108        O109   0.966       .  S
O109       Ni117   1.976       .  S
O109       Ni116   1.930       .  S
O109       Ni479   1.874   1_455  S
O110       Ni111   1.916   1_556  S
O110        C468   1.261       .  A
Ni111       O115   1.889   1_554  S
Ni111       O113   1.931       .  S
Ni111       O477   1.872       .  S
O112       Ni117   1.914       .  S
O113        C464   1.276       .  A
C114        O115   1.232       .  A
C114        C140   1.503       .  S
Ni117       O463   1.826   1_554  S
O119       Ni125   1.840       .  S
O119        C140   1.264       .  A
O120       Ni143   1.835       .  S
O120        C129   1.234       .  A
O121       Ni125   1.899       .  S
O121       Ni143   1.902       .  S
O121       Ni137   2.000       .  S
O121        H144   0.947       .  S
C122        O139   1.293       .  A
C122        O131   1.288       .  A
C122        C177   1.501       .  S
O123       Ni142   1.922       .  S
O123        C129   1.260       .  A
O124       Ni142   1.976       .  S
O124        C126   1.265       .  A
Ni125       O128   1.899       .  S
Ni125       O130   1.915       .  S
C126        O136   1.272       .  A
C126        C289   1.573       .  S
O127       Ni143   2.020       .  S
O127        C133   1.299       .  A
O128        C133   1.264       .  A
O130        C132   1.271       .  A
O131       Ni142   1.911       .  S
C132        O138   1.268       .  A
C132        C149   1.492       .  S
C133        C261   1.540       .  S
H134        O135   0.966       .  S
O135       Ni143   1.972       .  S
O135       Ni137   1.843       .  S
O135       Ni142   1.926       .  S
O136       Ni137   2.020       .  S
Ni137       O141   1.885       .  S
Ni137       O139   1.947       .  S
O138       Ni143   1.918       .  S
C140        O141   1.232       .  A
C145        C146   1.410       .  A
C145        C150   1.419       .  A
C145        C163   1.448       .  S
C146        C147   1.414       .  A
C146        C151   1.503       .  S
C147        C148   1.401       .  A
C147        C152   1.453       .  S
C148        C149   1.412       .  A
C148        C164   1.442       .  S
C149        C150   1.418       .  A
C150        C153   1.449       .  S
C151        C154   1.417       .  A
C151        C158   1.408       .  A
C152        N169   1.156       .  T
C153        N171   1.157       .  T
C154        C155   1.404       .  A
C154        C159   1.448       .  S
C155        C156   1.402       .  A
C155        C161   1.447       .  S
C156        C157   1.411       .  A
C157        C158   1.413       .  A
C157        C160   1.448       .  S
C158        C162   1.447       .  S
C159        N166   1.154       .  T
C160        N167   1.157       .  T
C161        N165   1.157       .  T
C162        N168   1.157       .  T
C163        N172   1.157       .  T
C164        N170   1.152       .  T
C173        C174   1.411       .  A
C173        C178   1.409       .  A
C173        C191   1.448       .  S
C174        C175   1.407       .  A
C174        C179   1.495       .  S
C175        C176   1.410       .  A
C175        C180   1.449       .  S
C176        C177   1.420       .  A
C176        C192   1.449       .  S
C177        C178   1.416       .  A
C178        C181   1.448       .  S
C179        C182   1.414       .  A
C179        C186   1.418       .  A
C180        N197   1.157       .  T
C181        N199   1.157       .  T
C182        C183   1.414       .  A
C182        C187   1.449       .  S
C183        C184   1.408       .  A
C183        C189   1.448       .  S
C184        C185   1.402       .  A
C185        C186   1.396       .  A
C185        C188   1.450       .  S
C186        C190   1.449       .  S
C187        N194   1.157       .  T
C188        N195   1.156       .  T
C189        N193   1.157       .  T
C190        N196   1.156       .  T
C191        N200   1.157       .  T
C192        N198   1.157       .  T
C201        C202   1.435       .  A
C201        C206   1.422       .  A
C201        C219   1.445       .  S
C202        C203   1.437       .  A
C202        C207   1.565       .  S
C203        C204   1.427       .  A
C203        C208   1.446       .  S
C204        C205   1.413       .  A
C204        C588   1.453       .  S
C205        C206   1.398       .  A
C206        C209   1.440       .  S
C207        C210   1.444       .  A
C207        C214   1.439       .  A
C208        N593   1.158   1_455  T
C209        N227   1.155       .  T
C210        C211   1.426       .  A
C210        C215   1.448       .  S
C211        C212   1.401       .  A
C211        C217   1.452       .  S
C212        C213   1.401       .  A
C213        C214   1.422       .  A
C213        C584   1.450   1_455  S
C214        C586   1.458   1_455  S
C215        N222   1.159       .  T
C216        C581   1.450       .  S
C216        N223   1.157       .  T
C217        N221   1.157       .  T
C218        C582   1.457       .  S
C218        N224   1.158       .  T
C219        N228   1.155       .  T
C220        C572   1.453       .  S
C220        N226   1.157       .  T
N225        C576   1.158       .  T
C229        C230   1.415       .  A
C229        C234   1.428       .  A
C229        C615   1.447       .  S
C230        C231   1.411       .  A
C230        C235   1.544       .  S
C231        C232   1.428       .  A
C231        C236   1.444       .  S
C232        C233   1.416       .  A
C232        C248   1.437       .  S
C233        C234   1.429       .  A
C234        C605   1.445       .  S
C235        C238   1.414       .  A
C235        C242   1.422       .  A
C236        N253   1.157       .  T
C237        C602   1.445       .  S
C237        N255   1.157       .  T
C238        C239   1.421       .  A
C238        C243   1.441       .  S
C239        C240   1.418       .  A
C239        C245   1.445       .  S
C240        C241   1.415   1_455  A
C241        C242   1.426   1_655  A
C241        C612   1.448       .  S
C242        C614   1.445   1_455  S
C243        N250   1.154       .  T
C244        C609   1.448       .  S
C244        N251   1.157       .  T
C245        N249   1.156       .  T
C246        C610   1.445       .  S
C246        N252   1.155       .  T
C247        C597   1.445       .  S
C247        N256   1.155       .  T
C248        N254   1.155   1_556  T
C257        C258   1.430   1_556  A
C257        C262   1.433       .  A
C257        C275   1.447       .  S
C258        C259   1.430       .  A
C258        C263   1.572       .  S
C259        C260   1.431       .  A
C259        C264   1.451       .  S
C260        C261   1.424   1_554  A
C260        C276   1.451       .  S
C261        C262   1.415       .  A
C262        C265   1.437       .  S
C263        C266   1.436       .  A
C263        C270   1.441       .  A
C264        N281   1.157       .  T
C265        N283   1.154       .  T
C266        C267   1.425       .  A
C266        C271   1.445       .  S
C267        C268   1.404       .  A
C267        C273   1.449       .  S
C268        C269   1.405       .  A
C269        C270   1.426       .  A
C269        C272   1.451       .  S
C270        C274   1.447       .  S
C271        N278   1.155       .  T
C272        N279   1.158       .  T
C273        N277   1.157       .  T
C274        N280   1.159   1_554  T
C275        N284   1.158       .  T
C276        N282   1.157       .  T
C285        C286   1.426   1_556  A
C285        C290   1.443       .  A
C285        C303   1.447       .  S
C286        C287   1.416       .  A
C286        C291   1.563       .  S
C287        C288   1.423       .  A
C287        C292   1.448       .  S
C288        C289   1.432   1_554  A
C288        C304   1.437       .  S
C289        C290   1.428       .  A
C290        C293   1.439       .  S
C291        C294   1.437       .  A
C291        C298   1.431       .  A
C292        N309   1.157       .  T
C293        N311   1.154       .  T
C294        C295   1.424       .  A
C294        C299   1.443       .  S
C295        C296   1.402       .  A
C295        C301   1.444       .  S
C296        C297   1.402       .  A
C297        C298   1.418       .  A
C297        C300   1.451       .  S
C298        C302   1.440       .  S
C299        N306   1.158       .  T
C300        N307   1.157       .  T
C301        N305   1.154       .  T
C302        N308   1.157       .  T
C303        N312   1.157       .  T
C304        N310   1.158       .  T
C313        C314   1.421       .  A
C313        C318   1.394       .  A
C313        C331   1.435       .  S
C314        C683   1.416   1_455  A
C314        C319   1.504       .  S
C315        C316   1.407       .  A
C315        C682   1.417       .  A
C315        C320   1.448       .  S
C316        C685   1.410       .  A
C316        C332   1.449       .  S
C317        C318   1.390       .  A
C317        C684   1.411   1_455  A
C317        N385   1.421       .  S
C318        C321   1.454       .  S
C319        C322   1.422       .  A
C319        C694   1.408   1_455  A
C320        N337   1.157       .  T
C321        N339   1.157       .  T
C322        C323   1.422       .  A
C322        C327   1.450       .  S
C323        C324   1.412   1_455  A
C323        C329   1.447       .  S
C324        C693   1.406       .  A
C325        C326   1.393       .  A
C325        C692   1.407       .  A
C325        C328   1.442       .  S
C326        C687   1.410       .  A
C326        C330   1.448       .  S
C327        N334   1.157       .  T
C328        N335   1.150   1_554  T
C329        N333   1.157       .  T
C330        N336   1.153       .  T
C331        N340   1.150       .  T
C332        N338   1.158       .  T
C341        C342   1.405       .  A
C341        C346   1.404   1_455  A
C341        C359   1.450       .  S
C342        C711   1.416   1_455  A
C342        C347   1.481       .  S
C343        C344   1.406       .  A
C343        C710   1.416       .  A
C343        C348   1.451       .  S
C344        C713   1.400       .  A
C344        C360   1.450       .  S
C345        C346   1.411       .  A
C345        C712   1.400       .  A
C346        C349   1.449   1_655  S
C347        C350   1.405   1_455  A
C347        C354   1.405       .  A
C348        N365   1.157       .  T
C349        N367   1.157       .  T
C350        C719   1.410       .  A
C350        C355   1.449       .  S
C351        C718   1.410       .  A
C351        C720   1.414       .  A
C351        C357   1.447       .  S
C352        C353   1.417       .  A
C352        C719   1.414   1_455  A
C352        N382   1.458       .  S
C353        C354   1.403       .  A
C353        C356   1.447       .  S
C354        C358   1.448       .  S
C355        N730   1.157       .  T
C356        N363   1.157       .  T
C357        N361   1.157       .  T
C358        N364   1.156       .  T
C359        N368   1.157       .  T
C360        N366   1.158       .  T
N362        C723   1.157       .  T
C369        C371   1.564   1_545  S
C369        C373   1.535   1_545  S
C369        C372   1.549       .  S
C369        C392   1.788       .  S
C370        C374   1.601   1_545  S
C370        C376   1.578   1_545  S
C370        C375   1.575       .  S
C370        C393   1.780       .  S
C371        C379   1.380   1_565  A
C372        C383   1.366       .  A
C373        C387   1.372       .  A
C374        C377   1.389       .  A
C375        C381   1.379       .  A
C376        C384   1.370       .  A
C377        H390   1.076       .  S
N378        C379   1.335   1_565  A
N378        N424   1.409       .  S
C379        H380   1.077       .  S
C381        H391   1.078       .  S
C381        N382   1.369   1_655  A
C383        H389   1.074       .  S
C384        H386   1.071       .  S
C384        N385   1.339   1_655  A
C387        H388   1.079       .  S
C392        C394   1.558       .  S
C392        C396   1.565       .  S
C392        C395   1.575   1_545  S
C393        C397   1.577       .  S
C393        C399   1.579       .  S
C393        C398   1.608   1_545  S
C394        C402   1.378   1_545  A
C394        C397   1.446       .  A
C395        C406   1.399       .  A
C395        C398   1.445       .  A
C396        C410   1.377       .  A
C396        C399   1.445       .  A
C397        C400   1.384       .  A
C398        C404   1.389       .  A
C399        C407   1.388       .  A
C400        H413   1.075       .  S
C400        N401   1.348   1_545  A
N401        C402   1.335       .  A
N401        N447   1.409       .  S
C402        H403   1.076       .  S
C404        H414   1.058       .  S
C404        N405   1.352       .  A
N405        C406   1.347       .  A
N405        C636   1.462       .  S
C406        H412   1.074       .  S
C407        H409   1.082       .  S
C407        N408   1.367       .  A
N408        C410   1.361       .  A
N408        C664   1.457       .  S
C410        H411   1.082       .  S
C415        C417   1.563       .  S
C415        C419   1.579   1_565  S
C415        C418   1.564       .  S
C415        C438   1.781       .  S
C416        C420   1.575   1_565  S
C416        C422   1.597   1_565  S
C416        C421   1.604       .  S
C417        C425   1.382       .  A
C417        C420   1.437   1_565  A
C418        C429   1.387       .  A
C418        C421   1.436       .  A
C419        C433   1.389       .  A
C419        C422   1.450       .  A
C420        C423   1.377       .  A
C421        C427   1.393       .  A
C422        C430   1.395       .  A
C423        N424   1.345   1_545  A
N424        C425   1.344       .  A
C425        H426   1.076       .  S
C427        N428   1.354       .  A
N428        C429   1.345       .  A
N428        C580   1.454       .  S
C429        H435   1.077       .  S
C430        N431   1.368       .  A
N431        C433   1.363       .  A
N431        C608   1.470       .  S
C433        H434   1.080       .  S
C438        C440   1.565       .  S
C438        C442   1.542       .  S
C438        C441   1.549   1_565  S
C439        C443   1.603       .  S
C439        C445   1.593       .  S
C439        C444   1.563   1_565  S
C440        C448   1.383       .  A
C440        C443   1.453       .  A
C441        C452   1.374       .  A
C441        C444   1.454       .  A
C442        C456   1.386       .  A
C442        C445   1.455       .  A
C443        C446   1.381       .  A
C444        C450   1.378       .  A
C445        C453   1.380       .  A
C446        H459   1.076       .  S
C446        N447   1.346       .  A
N447        C448   1.343       .  A
C448        H449   1.079   1_565  S
C450        H460   1.081       .  S
C450        N451   1.348       .  A
N451        C452   1.347       .  A
N451        C552   1.430       .  S
C452        H458   1.079       .  S
C453        H455   1.076       .  S
C453        N454   1.343       .  A
N454        C456   1.327       .  A
N454        C524   1.433       .  S
C456        H457   1.082       .  S
O461       Ni467   1.821       .  S
O461        C482   1.268       .  A
O462       Ni485   1.832   1_554  S
O462        C471   1.279   1_554  A
O463       Ni467   1.866   1_455  S
O463       Ni479   1.991   1_456  S
O463        H486   0.963       .  S
C464        O473   1.267       .  A
C464        C713   1.463       .  S
O465       Ni484   1.899       .  S
O465        C471   1.244   1_554  A
O466       Ni484   1.998       .  S
O466        C468   1.286   1_554  A
Ni467       O470   1.885       .  S
Ni467       O472   1.916   1_556  S
C468        C601   1.545       .  S
O469       Ni485   2.009       .  S
O469        C475   1.288       .  A
C471        C497   1.460       .  S
O473       Ni484   1.884       .  S
C474        O480   1.270       .  A
C474        C692   1.484       .  S
C475        C573   1.509       .  S
H476        O477   0.966       .  S
O477       Ni485   1.976   1_554  S
O477       Ni484   1.932       .  S
O478       Ni479   1.916   1_456  S
Ni479       O483   1.887   1_554  S
Ni479       O481   1.931       .  S
O480       Ni485   1.915   1_554  S
C482        O483   1.231       .  A
C482        C508   1.503       .  S
O487       Ni493   1.838       .  S
O487        C508   1.263       .  A
O488       Ni511   1.838       .  S
O488        C497   1.235       .  A
O489       Ni493   1.899       .  S
O489       Ni511   1.903       .  S
O489       Ni505   2.000       .  S
O489        H512   0.947       .  S
C490        O507   1.294       .  A
C490        O499   1.288       .  A
C490        C545   1.501       .  S
O491       Ni510   1.924       .  S
O491        C497   1.260       .  A
O492       Ni510   1.976       .  S
O492        C494   1.264       .  A
Ni493       O496   1.898       .  S
Ni493       O498   1.910       .  S
C494        O504   1.272       .  A
C494        C657   1.572       .  S
O495       Ni511   2.019       .  S
O495        C501   1.298       .  A
O496        C501   1.264       .  A
O498        C500   1.270       .  A
O499       Ni510   1.909       .  S
C500        O506   1.268       .  A
C500        C517   1.489       .  S
C501        C629   1.539       .  S
H502        O503   0.966       .  S
O503       Ni511   1.972       .  S
O503       Ni505   1.843       .  S
O503       Ni510   1.926       .  S
O504       Ni505   2.019       .  S
Ni505       O509   1.885       .  S
Ni505       O507   1.949       .  S
O506       Ni511   1.918       .  S
C508        O509   1.233       .  A
C513        C514   1.410       .  A
C513        C518   1.418       .  A
C513        C531   1.447       .  S
C514        C515   1.412       .  A
C514        C519   1.501       .  S
C515        C516   1.399       .  A
C515        C520   1.454       .  S
C516        C517   1.412       .  A
C516        C532   1.440       .  S
C517        C518   1.416       .  A
C518        C521   1.449       .  S
C519        C522   1.418       .  A
C519        C526   1.407       .  A
C520        N537   1.157       .  T
C521        N539   1.157       .  T
C522        C523   1.404       .  A
C522        C527   1.448       .  S
C523        C524   1.401       .  A
C523        C529   1.447       .  S
C524        C525   1.410       .  A
C525        C526   1.411       .  A
C525        C528   1.447       .  S
C526        C530   1.447       .  S
C527        N534   1.154       .  T
C528        N535   1.157       .  T
C529        N533   1.157       .  T
C530        N536   1.157       .  T
C531        N540   1.157       .  T
C532        N538   1.151       .  T
C541        C542   1.410       .  A
C541        C546   1.409       .  A
C541        C559   1.449       .  S
C542        C543   1.406       .  A
C542        C547   1.495       .  S
C543        C544   1.410       .  A
C543        C548   1.448       .  S
C544        C545   1.421       .  A
C544        C560   1.450       .  S
C545        C546   1.417       .  A
C546        C549   1.448       .  S
C547        C550   1.414       .  A
C547        C554   1.418       .  A
C548        N565   1.157       .  T
C549        N567   1.157       .  T
C550        C551   1.413       .  A
C550        C555   1.448       .  S
C551        C552   1.407       .  A
C551        C557   1.448       .  S
C552        C553   1.402       .  A
C553        C554   1.398       .  A
C553        C556   1.450       .  S
C554        C558   1.450       .  S
C555        N562   1.157       .  T
C556        N563   1.156       .  T
C557        N561   1.157       .  T
C558        N564   1.156       .  T
C559        N568   1.157       .  T
C560        N566   1.157       .  T
C569        C570   1.435       .  A
C569        C574   1.422       .  A
C569        C587   1.445       .  S
C570        C571   1.436       .  A
C570        C575   1.565       .  S
C571        C572   1.427       .  A
C571        C576   1.446       .  S
C572        C573   1.413       .  A
C573        C574   1.399       .  A
C574        C577   1.440       .  S
C575        C578   1.444       .  A
C575        C582   1.438       .  A
C577        N595   1.155       .  T
C578        C579   1.427       .  A
C578        C583   1.448       .  S
C579        C580   1.403       .  A
C579        C585   1.451       .  S
C580        C581   1.401       .  A
C581        C582   1.422       .  A
C583        N590   1.159       .  T
C584        N591   1.157       .  T
C585        N589   1.157       .  T
C586        N592   1.158       .  T
C587        N596   1.155       .  T
C588        N594   1.157       .  T
C597        C598   1.411       .  A
C597        C602   1.428       .  A
C598        C599   1.409       .  A
C598        C603   1.543       .  S
C599        C600   1.429       .  A
C599        C604   1.443       .  S
C600        C601   1.418       .  A
C600        C616   1.438       .  S
C601        C602   1.431       .  A
C603        C606   1.413       .  A
C603        C610   1.420       .  A
C604        N621   1.157       .  T
C605        N623   1.157       .  T
C606        C607   1.422       .  A
C606        C611   1.442       .  S
C607        C608   1.419       .  A
C607        C613   1.445       .  S
C608        C609   1.416       .  A
C609        C610   1.426       .  A
C611        N618   1.154       .  T
C612        N619   1.157       .  T
C613        N617   1.156       .  T
C614        N620   1.155       .  T
C615        N624   1.156   1_455  T
C616        N622   1.156   1_556  T
C625        C626   1.429   1_556  A
C625        C630   1.432       .  A
C625        C643   1.447       .  S
C626        C627   1.431       .  A
C626        C631   1.571       .  S
C627        C628   1.431       .  A
C627        C632   1.451       .  S
C628        C629   1.424   1_554  A
C628        C644   1.451       .  S
C629        C630   1.415       .  A
C630        C633   1.437       .  S
C631        C634   1.435       .  A
C631        C638   1.442       .  A
C632        N649   1.157       .  T
C633        N651   1.154       .  T
C634        C635   1.426       .  A
C634        C639   1.446       .  S
C635        C636   1.406       .  A
C635        C641   1.449       .  S
C636        C637   1.405       .  A
C637        C638   1.426       .  A
C637        C640   1.451       .  S
C638        C642   1.448       .  S
C639        N646   1.155       .  T
C640        N647   1.158       .  T
C641        N645   1.157       .  T
C642        N648   1.159   1_554  T
C643        N652   1.158       .  T
C644        N650   1.157       .  T
C653        C654   1.427   1_556  A
C653        C658   1.442       .  A
C653        C671   1.448       .  S
C654        C655   1.416       .  A
C654        C659   1.564       .  S
C655        C656   1.423       .  A
C655        C660   1.447       .  S
C656        C657   1.431   1_554  A
C656        C672   1.437       .  S
C657        C658   1.427       .  A
C658        C661   1.440       .  S
C659        C662   1.437       .  A
C659        C666   1.430       .  A
C660        N677   1.156       .  T
C661        N679   1.154       .  T
C662        C663   1.425       .  A
C662        C667   1.444       .  S
C663        C664   1.402       .  A
C663        C669   1.442       .  S
C664        C665   1.400       .  A
C665        C666   1.418       .  A
C665        C668   1.451       .  S
C666        C670   1.439       .  S
C667        N674   1.158       .  T
C668        N675   1.157       .  T
C669        N673   1.153       .  T
C670        N676   1.157       .  T
C671        N680   1.157       .  T
C672        N678   1.158       .  T
C681        C682   1.420       .  A
C681        C686   1.393       .  A
C681        C699   1.434       .  S
C682        C687   1.503       .  S
C683        C684   1.407       .  A
C683        C688   1.448       .  S
C684        C700   1.449       .  S
C685        C686   1.390       .  A
C686        C689   1.454       .  S
C687        C690   1.421       .  A
C688        N705   1.157       .  T
C689        N707   1.157       .  T
C690        C691   1.421       .  A
C690        C695   1.450       .  S
C691        C692   1.412       .  A
C691        C697   1.446       .  S
C693        C694   1.392       .  A
C693        C696   1.440       .  S
C694        C698   1.448       .  S
C695        N702   1.157       .  T
C696        N703   1.149   1_554  T
C697        N701   1.157       .  T
C698        N704   1.153       .  T
C699        N708   1.150       .  T
C700        N706   1.158       .  T
C709        C710   1.405       .  A
C709        C714   1.406       .  A
C709        C727   1.450       .  S
C710        C715   1.481       .  S
C711        C712   1.407       .  A
C711        C716   1.451       .  S
C712        C728   1.450       .  S
C713        C714   1.412       .  A
C714        C717   1.449       .  S
C715        C718   1.404       .  A
C715        C722   1.404       .  A
C716        N733   1.157       .  T
C717        N735   1.156       .  T
C718        C723   1.448       .  S
C719        C725   1.446       .  S
C720        C721   1.419       .  A
C721        C722   1.403       .  A
C721        C724   1.446       .  S
C722        C726   1.449       .  S
C724        N731   1.157       .  T
C725        N729   1.157       .  T
C726        N732   1.156       .  T
C727        N736   1.157       .  T
C728        N734   1.158       .  T
