geometry optimzed in LAMMPS
_audit_creation_date              2020-11-30 
_audit_creation_method            'lammps2cif' 
_symmetry_space_group_name_H-M    'P1' 
_symmetry_Int_Tables_number       1 
_symmetry_cell_setting            triclinic 
loop_ 
_symmetry_equiv_pos_as_xyz 
  x,y,z 
_cell_length_a                    34.79014704 
_cell_length_b                    34.41009478238292 
_cell_length_c                    34.366355562179066 
_cell_angle_alpha                 89.11776597219121 
_cell_angle_beta                  88.6352591587916 
_cell_angle_gamma                 91.10854136044628 
loop_ 
_atom_site_label 
_atom_site_type_symbol 
_atom_site_fract_x 
_atom_site_fract_y 
_atom_site_fract_z 
_atom_site_charge 
O1          O  0.53537896  0.05869223  0.85638601    -0.80200
O2          O  0.52788858  0.05895255  0.63463328    -0.81700
O3          O  0.61046214  0.04547012  0.73675772    -0.78800
O4          O  0.52153001  0.13466476  0.75237557    -0.77100
O5          O  0.45571714  0.13299859  0.75495811    -0.78900
O6          O  0.60934725  0.97928940  0.74073815    -0.79900
O7          O  0.55868882  0.09559281  0.68005225    -0.81200
O8          O  0.57081653  0.08732527  0.80620394    -0.81500
Eu9        Eu  0.54314014  0.06767455  0.74467099     2.39200
O10         O  0.48686133  0.06613754  0.70790237    -0.89000
O11         O  0.54393106  0.01311466  0.78650517    -0.92600
C12         C  0.56274158  0.08112680  0.84257680     1.02100
C13         C  0.55035499  0.08726825  0.64476003     1.01900
C14         C  0.62729779  0.01219309  0.73613812     1.01900
C15         C  0.48860688  0.15087346  0.75689878     0.99700
H16         H  0.56373480  0.01187338  0.68901057     0.29500
O17         O  0.54193589  0.01168712  0.70645391    -1.01400
H18         H  0.48876468  0.08897726  0.80344042     0.29500
O19         O  0.48851843  0.06666770  0.78690045    -1.03900
O20         O  0.44094501  0.96133546  0.64202542    -0.81100
O21         O  0.44228679  0.96970016  0.86392647    -0.80700
O22         O  0.56221480  0.93159354  0.68550247    -0.79100
O23         O  0.41123051  0.09068375  0.68700829    -0.82500
O24         O  0.40632727  0.08375592  0.81340469    -0.80300
O25         O  0.56953694  0.93869415  0.81161315    -0.79000
O26         O  0.45376823  0.88850292  0.76260906    -0.80500
O27         O  0.36548411  0.97486752  0.74820135    -0.82400
O28         O  0.51933838  0.89014227  0.75859631    -0.79200
O29         O  0.36479547  0.04109415  0.74618043    -0.81800
O30         O  0.53010018  0.96410763  0.63778532    -0.77600
O31         O  0.53676897  0.96931915  0.86013802    -0.77600
O32         O  0.44258614  0.05483960  0.85978366    -0.77200
O33         O  0.44086348  0.05557301  0.63958372    -0.80700
O34         O  0.41278018  0.92582304  0.69228785    -0.80200
O35         O  0.40481619  0.94019988  0.81854886    -0.78500
Eu36       Eu  0.48598159  0.01005650  0.66941381     2.39800
Eu37       Eu  0.48950460  0.01217379  0.82860813     2.39600
Eu38       Eu  0.54235943  0.95715506  0.74874773     2.38400
Eu39       Eu  0.43226616  0.06540700  0.74970105     2.39900
Eu40       Eu  0.43239207  0.95500486  0.75343579     2.39800
O41         O  0.43348474  0.01089305  0.79130023    -0.92900
O42         O  0.48670921  0.95516742  0.71134317    -0.91800
C43         C  0.41872692  0.93349145  0.65579812     1.02300
C44         C  0.41356340  0.94806776  0.85386590     1.01000
C45         C  0.55423820  0.93867977  0.64969525     1.00400
C46         C  0.41757938  0.08219021  0.65107772     1.02400
C47         C  0.41487562  0.07674565  0.84908143     1.01300
C48         C  0.56315656  0.94609823  0.84790744     1.00200
C49         C  0.48672311  0.87227156  0.76442079     1.00200
C50         C  0.34784096  0.00729381  0.74497121     1.02800
H51         H  0.48834106  0.93442690  0.80901672     0.30200
O52         O  0.48815290  0.95614908  0.79114435    -1.05100
H53         H  0.40932597  0.00863379  0.69543384     0.32200
O54         O  0.43174138  0.00945585  0.71130513    -1.07600
C55         C  0.69150638  0.20716364  0.49672124     0.86400
C56         C  0.67126196  0.18875940  0.53313201    -0.53800
C57         C  0.63242973  0.18440898  0.53042210     0.09400
C58         C  0.61673446  0.20044503  0.49178108     0.20300
C59         C  0.67791298  0.18079421  0.46349991    -0.54500
C60         C  0.63854771  0.17693434  0.46089227     0.09500
C61         C  0.67128383  0.24554412  0.49047215    -0.54100
C62         C  0.63257786  0.24264772  0.48651918     0.10000
H63         H  0.68561916  0.17661498  0.55789973     0.14500
H64         H  0.58530802  0.19860121  0.48967075     0.00300
H65         H  0.69783700  0.16528562  0.44492372     0.14800
H66         H  0.68687090  0.27319554  0.48845134     0.14600
O67         O  0.54241571  0.05143353  0.35865001    -0.80200
O68         O  0.54151374  0.04796210  0.13803699    -0.81700
O69         O  0.61768272  0.04031927  0.25564936    -0.78800
O70         O  0.52974290  0.12729332  0.23816902    -0.77100
O71         O  0.46411793  0.12516468  0.24114344    -0.78900
O72         O  0.61636758  0.97401149  0.25739340    -0.79900
O73         O  0.57771543  0.07861530  0.18336795    -0.81200
O74         O  0.57262590  0.08678750  0.30956828    -0.81500
Eu75       Eu  0.55106907  0.06052831  0.24793168     2.39200
O76         O  0.49545535  0.06013245  0.21028942    -0.89000
O77         O  0.55030898  0.00511680  0.28880387    -0.92600
C78         C  0.56609491  0.07849406  0.34583907     1.02100
C79         C  0.56962042  0.07068155  0.14790319     1.01900
C80         C  0.63399987  0.00725641  0.25995641     1.01900
C81         C  0.49662765  0.14323710  0.23602386     0.99700
H82         H  0.57322573  0.00515954  0.19293207     0.29500
O83         O  0.55015040  0.00505680  0.20922985    -1.01400
H84         H  0.49664414  0.08382242  0.30444312     0.29500
O85         O  0.49630935  0.06046471  0.28951606    -1.03900
O86         O  0.44875213  0.95735455  0.14391601    -0.81100
O87         O  0.45429224  0.95642553  0.36694755    -0.80700
O88         O  0.57578969  0.93216576  0.18530464    -0.79100
O89         O  0.41447555  0.07963311  0.18903529    -0.82500
O90         O  0.42140389  0.08622120  0.31374487    -0.80300
O91         O  0.56844376  0.92092039  0.31155005    -0.79000
O92         O  0.46013307  0.88152328  0.24526948    -0.80500
O93         O  0.37291210  0.96952556  0.26669452    -0.82400
O94         O  0.52572751  0.88297723  0.24032002    -0.79200
O95         O  0.37480765  0.03579408  0.26420823    -0.81800
O96         O  0.53821033  0.96063084  0.13941778    -0.77600
O97         O  0.53936152  0.95661068  0.35908532    -0.77600
O98         O  0.45108994  0.05187554  0.36186249    -0.77200
O99         O  0.44725887  0.04813857  0.14067844    -0.80700
O100        O  0.41365904  0.92613775  0.19254998    -0.80200
O101        O  0.42362169  0.92107010  0.32087474    -0.78500
Eu102      Eu  0.49376769  0.00456551  0.17199589     2.39800
Eu103      Eu  0.49583428  0.00483956  0.33083940     2.39600
Eu104      Eu  0.54981061  0.94971325  0.24965164     2.38400
Eu105      Eu  0.44089612  0.05875491  0.25163340     2.39900
Eu106      Eu  0.43912022  0.94800489  0.25501116     2.39800
O107        O  0.44040878  0.00391128  0.29318629    -0.92900
O108        O  0.49371452  0.94964254  0.21324667    -0.91800
C109        C  0.42211951  0.93318119  0.15627012     1.02300
C110        C  0.43176669  0.92818072  0.35669355     1.01000
C111        C  0.56611291  0.93896310  0.14984208     1.00400
C112        C  0.42144593  0.07191915  0.15294154     1.02400
C113        C  0.42817824  0.07853119  0.34965142     1.01300
C114        C  0.56134647  0.92890040  0.34747671     1.00200
C115        C  0.49272290  0.86532133  0.23888030     1.00200
C116        C  0.35692458  0.00292180  0.26968379     1.02800
H117        H  0.49530310  0.92546935  0.30704030     0.30200
O118        O  0.49520543  0.94900961  0.29141986    -1.05100
H119        H  0.41509354  0.00283308  0.19868100     0.32200
O120        O  0.43853454  0.00309442  0.21346887    -1.07600
C121        C  0.29366255  0.81135880  0.00376398     0.86400
C122        C  0.31081900  0.83132277  0.96717038    -0.53800
C123        C  0.31533942  0.87058667  0.96975116     0.09400
C124        C  0.30027655  0.88699056  0.00893379     0.20300
C125        C  0.32046763  0.82540291  0.03627927    -0.54500
C126        C  0.32403009  0.86498936  0.03921390     0.09500
C127        C  0.25584570  0.83159775  0.01229782    -0.54100
C128        C  0.25835941  0.87102124  0.01536265     0.10000
H129        H  0.32158307  0.81527321  0.94237682     0.14500
H130        H  0.30264987  0.91877138  0.01106082     0.00300
H131        H  0.33724618  0.80662609  0.05436475     0.14800
H132        H  0.22886389  0.81540667  0.01595393     0.14600
C133        C  0.68553727  0.81259863  0.99651288     0.86400
C134        C  0.65632875  0.82663317  0.02777686    -0.53800
C135        C  0.65179762  0.86575973  0.02761194     0.09400
C136        C  0.67592614  0.88778298  0.99650520     0.20300
C137        C  0.66958842  0.82903306  0.95822837    -0.54500
C138        C  0.66402079  0.86853002  0.95802779     0.09500
C139        C  0.72214838  0.83648965  0.00381589    -0.54100
C140        C  0.71723230  0.87552848  0.00449584     0.10000
H141        H  0.64043423  0.80875341  0.04890750     0.14500
H142        H  0.67241310  0.91977025  0.99725956     0.00300
H143        H  0.65971229  0.81018175  0.93541376     0.14800
H144        H  0.74974856  0.82336100  0.00881923     0.14600
C145        C  0.68369609  0.80673077  0.50452597     0.86400
C146        C  0.67273644  0.83262204  0.46953434    -0.53800
C147        C  0.63454507  0.84117946  0.46877227     0.09400
C148        C  0.61059216  0.82387460  0.50295636     0.20300
C149        C  0.66882077  0.82980830  0.54007912    -0.54500
C150        C  0.63103419  0.83962298  0.53891681     0.09500
C151        C  0.65636508  0.77120390  0.50285855    -0.54100
C152        C  0.61827162  0.77993677  0.50184348     0.10000
H153        H  0.69323192  0.84363739  0.44758008     0.14500
H154        H  0.57963934  0.83094106  0.50151776     0.00300
H155        H  0.68621750  0.83915145  0.56376133     0.14800
H156        H  0.66638504  0.74155281  0.50143381     0.14600
C157        C  0.29366270  0.20109266  0.00547442     0.86400
C158        C  0.31233984  0.18465068  0.04280301    -0.53800
C159        C  0.32039562  0.14554965  0.04180071     0.09400
C160        C  0.30772090  0.12657352  0.00359596     0.20300
C161        C  0.32208288  0.18961123  0.97289806    -0.54500
C162        C  0.32884420  0.15079464  0.97175332     0.09500
C163        C  0.25809424  0.17516699  0.00034236    -0.54100
C164        C  0.26506822  0.13644511  0.99936329     0.10000
H165        H  0.32075891  0.20243779  0.06695049     0.14500
H166        H  0.31348846  0.09528836  0.00099495     0.00300
H167        H  0.33569619  0.21013247  0.95237459     0.14800
H168        H  0.22928157  0.18657349  0.99828099     0.14600
C169        C  0.68704516  0.20503011  0.99285304     0.86400
C170        C  0.66350798  0.19208770  0.95769151    -0.53800
C171        C  0.65997633  0.15290672  0.95424576     0.09400
C172        C  0.67923149  0.12962818  0.98670764     0.20300
C173        C  0.66528346  0.18540390  0.02739946    -0.54500
C174        C  0.66108992  0.14605791  0.02436881     0.09500
C175        C  0.72501337  0.18386673  0.98886941    -0.54100
C176        C  0.72140361  0.14470269  0.98535501     0.10000
H177        H  0.64855723  0.21144001  0.93829566     0.14500
H178        H  0.67580519  0.09762874  0.98412405     0.00300
H179        H  0.65255036  0.20122706  0.05136434     0.14800
H180        H  0.75279989  0.19890614  0.98823094     0.14600
C181        C  0.29705161  0.20961103  0.49507016     0.86400
C182        C  0.30982793  0.18722646  0.45837008    -0.53800
C183        C  0.34707641  0.17486712  0.45911780     0.09400
C184        C  0.36847358  0.18661333  0.49574481     0.20300
C185        C  0.30624096  0.18220282  0.52946845    -0.54500
C186        C  0.34344408  0.16978996  0.52940417     0.09500
C187        C  0.32758093  0.24273066  0.49733654    -0.54100
C188        C  0.36446221  0.23056794  0.49819966     0.10000
H189        H  0.29119288  0.18159597  0.43413829     0.14500
H190        H  0.39890642  0.17766380  0.49629027     0.00300
H191        H  0.28524959  0.17365237  0.55202801     0.14800
H192        H  0.32205871  0.27351111  0.49723554     0.14600
C193        C  0.29325982  0.80462066  0.50630046     0.86400
C194        C  0.30401075  0.83357518  0.53812195    -0.53800
C195        C  0.34268835  0.83932789  0.54175496     0.09400
C196        C  0.36745023  0.81536789  0.51370964     0.20300
C197        C  0.31437383  0.82016040  0.46906140    -0.54500
C198        C  0.35309046  0.82679949  0.47282767     0.09500
C199        C  0.31530201  0.76757405  0.51605888    -0.54100
C200        C  0.35361167  0.77282190  0.52107718     0.10000
H201        H  0.28290656  0.84769632  0.55659776     0.14500
H202        H  0.39877580  0.82009034  0.51745822     0.00300
H203        H  0.29968015  0.82720578  0.44260000     0.14800
H204        H  0.30234335  0.73864049  0.51713849     0.14600
O205        O  0.86631605  0.76470730  0.53501141    -0.80200
O206        O  0.02160564  0.75726516  0.37489519    -0.81700
O207        O  0.91473294  0.82519017  0.41980741    -0.78800
O208        O  0.90781808  0.69679908  0.42691364    -0.77100
O209        O  0.94380843  0.64998406  0.45535668    -0.78900
O210        O  0.94387129  0.87182663  0.45651390    -0.79900
O211        O  0.95598958  0.75500623  0.37731468    -0.81200
O212        O  0.86588530  0.76752031  0.46865342    -0.81500
Eu213      Eu  0.93311058  0.76125491  0.44490871     2.39200
O214        O  0.98904109  0.72400158  0.44284984    -0.89000
O215        O  0.93330641  0.79890622  0.50128303    -0.92600
C216        C  0.84888061  0.76887743  0.50248350     1.02100
C217        C  0.98862125  0.75300258  0.35889274     1.01900
C218        C  0.92169951  0.86081976  0.42902536     1.01900
C219        C  0.91602576  0.66090015  0.43391862     0.99700
H220        H  0.98780236  0.81850733  0.42087636     0.29500
O221        O  0.98812001  0.80215263  0.44404085    -1.01400
H222        H  0.91043507  0.70353028  0.49985124     0.29500
O223        O  0.93336586  0.71963561  0.49950531    -1.03900
O224        O  0.11122800  0.77199400  0.46274122    -0.81100
O225        O  0.95498343  0.74362714  0.62148261    -0.80700
O226        O  0.03095202  0.87528780  0.45263078    -0.79100
O227        O  0.03299141  0.65299607  0.44955095    -0.82500
O228        O  0.94429387  0.64646775  0.54116158    -0.80300
O229        O  0.94274583  0.86804829  0.54846692    -0.79000
O230        O  0.06125129  0.82420142  0.58075669    -0.80500
O231        O  0.06979254  0.69663201  0.56973249    -0.82400
O232        O  0.03050612  0.87196717  0.54761381    -0.79200
O233        O  0.03639960  0.64907302  0.53875338    -0.81800
O234        O  0.06065681  0.83012809  0.41449279    -0.77600
O235        O  0.91407703  0.81856977  0.58487520    -0.77600
O236        O  0.90756085  0.69124088  0.57292651    -0.77200
O237        O  0.06761954  0.70212807  0.41892881    -0.80700
O238        O  0.11066307  0.76715959  0.52931468    -0.80200
O239        O  0.02076257  0.74521713  0.61960810    -0.78500
Eu240      Eu  0.04402741  0.76502657  0.44154334     2.39800
Eu241      Eu  0.93306667  0.75690376  0.55581438     2.39600
Eu242      Eu  0.98820726  0.84002661  0.50075722     2.38400
Eu243      Eu  0.98967785  0.68219949  0.49744456     2.39900
Eu244      Eu  0.04377875  0.76054875  0.55303419     2.39800
O245        O  0.98898309  0.71960599  0.55367718    -0.92900
O246        O  0.04405148  0.80257825  0.49830235    -0.91800
C247        C  0.12804896  0.77156567  0.49589500     1.02300
C248        C  0.98792119  0.73928348  0.63718103     1.01000
C249        C  0.05291925  0.86544995  0.42361715     1.00400
C250        C  0.05917472  0.66578266  0.42520904     1.02400
C251        C  0.91647214  0.65607563  0.56428209     1.01300
C252        C  0.92040401  0.85482554  0.57641949     1.00200
C253        C  0.05327528  0.86031685  0.57436242     1.00200
C254        C  0.06306696  0.66059985  0.56166307     1.02800
H255        H  0.98787935  0.81240368  0.57954717     0.30200
O256        O  0.98806809  0.79795726  0.55579723    -1.05100
H257        H  0.06782805  0.70832837  0.49516086     0.32200
O258        O  0.04468514  0.72341516  0.49631887    -1.07600
O259        O  0.87367779  0.24664449  0.53640103    -0.80200
O260        O  0.02951861  0.27418743  0.37750542    -0.81700
O261        O  0.91191261  0.32390716  0.43060597    -0.78800
O262        O  0.92376303  0.19771422  0.41926803    -0.77100
O263        O  0.95531496  0.14967609  0.45189734    -0.78900
O264        O  0.94767306  0.37235735  0.45812946    -0.79900
O265        O  0.96385223  0.27049551  0.37962139    -0.81200
O266        O  0.87440903  0.25038580  0.47003971    -0.81500
Eu267      Eu  0.94110254  0.26087627  0.44693969     2.39200
O268        O  0.99716209  0.22384999  0.44576419    -0.89000
O269        O  0.93968214  0.29828951  0.50313989    -0.92600
C270        C  0.85688724  0.24504720  0.50327978     1.02100
C271        C  0.99643759  0.27551477  0.36135230     1.01900
C272        C  0.91972027  0.36010490  0.43703797     1.01900
C273        C  0.93205801  0.16182611  0.42565256     0.99700
H274        H  0.99529632  0.32129476  0.42361555     0.29500
O275        O  0.99543619  0.30335471  0.44552041    -1.01400
H276        H  0.91964512  0.20025101  0.50177031     0.29500
O277        O  0.94131256  0.21822328  0.50160087    -1.03900
O278        O  0.11841331  0.25840936  0.46485944    -0.81100
O279        O  0.96293089  0.26376928  0.62459916    -0.80700
O280        O  0.04450252  0.37654602  0.46342848    -0.79100
O281        O  0.04269039  0.15474600  0.45195928    -0.82500
O282        O  0.95695883  0.14682578  0.55234389    -0.80300
O283        O  0.94357539  0.36653405  0.54575882    -0.79000
O284        O  0.07367992  0.32669920  0.57429092    -0.80500
O285        O  0.07264989  0.19769163  0.57838314    -0.82400
O286        O  0.03482560  0.37322130  0.54856697    -0.79200
O287        O  0.04360825  0.14991792  0.54337099    -0.81800
O288        O  0.08015140  0.33130465  0.43180126    -0.77600
O289        O  0.91041748  0.31704370  0.57723102    -0.77600
O290        O  0.92511070  0.19271436  0.58697086    -0.77200
O291        O  0.07272358  0.20385994  0.41669975    -0.80700
O292        O  0.11852569  0.25857473  0.53156209    -0.80200
O293        O  0.02857386  0.26507679  0.62359969    -0.78500
Eu294      Eu  0.05162770  0.26573115  0.44443090     2.39800
Eu295      Eu  0.94044918  0.25651995  0.55779549     2.39600
Eu296      Eu  0.99364805  0.34060486  0.50198699     2.38400
Eu297      Eu  0.99722402  0.18120572  0.50035036     2.39900
Eu298      Eu  0.05095555  0.26169671  0.55542081     2.39800
O299        O  0.99667068  0.21974396  0.55642009    -0.92900
O300        O  0.04994207  0.30328630  0.50070033    -0.91800
C301        C  0.13535410  0.25595613  0.49777164     1.02300
C302        C  0.99561024  0.26696752  0.64145791     1.01000
C303        C  0.07341918  0.36678686  0.44151826     1.00400
C304        C  0.06605408  0.16749226  0.42459337     1.02400
C305        C  0.93433385  0.15722559  0.58084640     1.01300
C306        C  0.91643319  0.35333178  0.56902010     1.00200
C307        C  0.06294308  0.36213661  0.56950267     1.00200
C308        C  0.06696914  0.16163656  0.56961970     1.02800
H309        H  0.99380871  0.31522488  0.57950610     0.30200
O310        O  0.99455260  0.29887960  0.55671537    -1.05100
H311        H  0.07363945  0.20772178  0.49850173     0.32200
O312        O  0.05104793  0.22368336  0.49923794    -1.07600
C313        C  0.79300854  0.50489542  0.69504113     0.86400
C314        C  0.81743875  0.47139149  0.67870505    -0.53800
C315        C  0.81910385  0.46972690  0.63890319     0.09400
C316        C  0.79627495  0.50175240  0.61868132     0.20300
C317        C  0.81113590  0.54089943  0.67502323    -0.54500
C318        C  0.81379771  0.53973804  0.63524356     0.09500
C319        C  0.75405605  0.49933064  0.67649895    -0.54100
C320        C  0.75519099  0.49728048  0.63695406     0.10000
H321        H  0.83394604  0.45154780  0.69601287     0.14500
H322        H  0.79709783  0.50005101  0.58654509     0.00300
H323        H  0.82455949  0.56385856  0.69144948     0.14800
H324        H  0.72729549  0.49729407  0.69346716     0.14600
C325        C  0.18908207  0.51395524  0.69107853     0.86400
C326        C  0.16888215  0.55015261  0.67517121    -0.53800
C327        C  0.16380895  0.54994333  0.63574461     0.09400
C328        C  0.17889429  0.51318720  0.61589346     0.20300
C329        C  0.16289937  0.48022001  0.67722395    -0.54500
C330        C  0.15818387  0.47967869  0.63786309     0.09500
C331        C  0.22613419  0.51103220  0.66667523    -0.54100
C332        C  0.22090104  0.50937602  0.62763677     0.10000
H333        H  0.15664103  0.57221191  0.69365820     0.14500
H334        H  0.17459223  0.51320894  0.58404214     0.00300
H335        H  0.14835991  0.45912027  0.69649583     0.14800
H336        H  0.25419051  0.50812622  0.67953631     0.14600
C337        C  0.79599585  0.01142146  0.30588985     0.86400
C338        C  0.80823984  0.97933404  0.33502272    -0.53800
C339        C  0.84669063  0.97942186  0.34148071     0.09400
C340        C  0.86969777  0.01127087  0.31958774     0.20300
C341        C  0.81129276  0.04909486  0.32432141    -0.54500
C342        C  0.84977571  0.04906882  0.33236519     0.09500
C343        C  0.82164696  0.00555482  0.26982128    -0.54100
C344        C  0.85995381  0.00456815  0.27670036     0.10000
H345        H  0.78926779  0.95840819  0.34992425     0.14500
H346        H  0.90091244  0.01011495  0.32538090     0.00300
H347        H  0.79282313  0.07305859  0.33120486     0.14800
H348        H  0.81011568  0.00154151  0.24106094     0.14600
C349        C  0.79416314  0.00849021  0.70135750     0.86400
C350        C  0.81697075  0.04346002  0.68317693    -0.53800
C351        C  0.85580980  0.03802760  0.67863297     0.09400
C352        C  0.86825222  0.99765984  0.69343678     0.20300
C353        C  0.80497545  0.97491178  0.67397339    -0.54500
C354        C  0.84368337  0.96915661  0.66992828     0.09500
C355        C  0.81413438  0.99899123  0.73942264    -0.54100
C356        C  0.85248566  0.99283237  0.73571924     0.10000
H357        H  0.80369467  0.06873441  0.67070247     0.14500
H358        H  0.89955331  0.99290822  0.69084489     0.00300
H359        H  0.78378665  0.95690407  0.65972753     0.14800
H360        H  0.79881563  0.99680501  0.76733286     0.14600
C361        C  0.79259844  0.50724006  0.30794404     0.86400
C362        C  0.81695875  0.54259560  0.32070812    -0.53800
C363        C  0.82277318  0.54368439  0.35988459     0.09400
C364        C  0.80516446  0.50883138  0.38279817     0.20300
C365        C  0.81557918  0.47236735  0.32332112    -0.54500
C366        C  0.82230165  0.47326147  0.36233776     0.09500
C367        C  0.75619384  0.50766815  0.33379791    -0.54100
C368        C  0.76233743  0.50976653  0.37283172     0.10000
H369        H  0.82970039  0.56407475  0.30062210     0.14500
H370        H  0.81055259  0.50975838  0.41444167     0.00300
H371        H  0.82780400  0.45012447  0.30506335     0.14800
H372        H  0.72765212  0.50924503  0.32174926     0.14600
C373        C  0.18887030  0.51686838  0.30196326     0.86400
C374        C  0.17527326  0.48021914  0.32550462    -0.53800
C375        C  0.17216706  0.48510763  0.36485009     0.09400
C376        C  0.18341232  0.52686276  0.37716900     0.20300
C377        C  0.15995646  0.54774789  0.31402480    -0.54500
C378        C  0.15746324  0.55326142  0.35312437     0.09500
C379        C  0.22672692  0.52900870  0.32055255    -0.54100
C380        C  0.22415444  0.53504162  0.35946142     0.10000
H381        H  0.16543138  0.45346541  0.31283374     0.14500
H382        H  0.18114042  0.53151209  0.40904702     0.00300
H383        H  0.14267429  0.56369924  0.29356952     0.14800
H384        H  0.25398025  0.53052954  0.30443232     0.14600
C385        C  0.19160626  0.01232387  0.30393065     0.86400
C386        C  0.17618970  0.04548603  0.32905009    -0.53800
C387        C  0.13697003  0.04887069  0.32922223     0.09400
C388        C  0.11651722  0.01822490  0.30413709     0.20300
C389        C  0.16959056  0.97613912  0.32031348    -0.54500
C390        C  0.13047432  0.97907227  0.32127016     0.09500
C391        C  0.17503020  0.01920590  0.26393767    -0.54100
C392        C  0.13622062  0.02281753  0.26321046     0.10000
H393        H  0.19462393  0.06411647  0.34606631     0.14500
H394        H  0.08487422  0.02064319  0.30355682     0.00300
H395        H  0.18291057  0.95180173  0.33458181     0.14800
H396        H  0.19311777  0.02136721  0.23773061     0.14600
C397        C  0.18443285  0.00762047  0.70273283     0.86400
C398        C  0.16787222  0.97192696  0.68110151    -0.53800
C399        C  0.12963398  0.97423378  0.67248438     0.09400
C400        C  0.11161878  0.01261043  0.68564952     0.20300
C401        C  0.17541838  0.04202932  0.67533043    -0.54500
C402        C  0.13744612  0.04484232  0.66674327     0.09500
C403        C  0.15729176  0.01205690  0.73807157    -0.54100
C404        C  0.11947083  0.01486501  0.72928716     0.10000
H405        H  0.18501324  0.94827439  0.67059968     0.14500
H406        H  0.08069855  0.01543438  0.67907805     0.00300
H407        H  0.19716457  0.06210693  0.66327217     0.14800
H408        H  0.16722251  0.01328533  0.76776833     0.14600
O409        O  0.73370450  0.63260397  0.96937746    -0.80200
O410        O  0.74348530  0.47250988  0.12595147    -0.81700
O411        O  0.67259798  0.58283339  0.08018319    -0.78800
O412        O  0.79943635  0.59038266  0.07933247    -0.77100
O413        O  0.84683252  0.55530989  0.04936288    -0.78900
O414        O  0.62750125  0.55455545  0.04165763    -0.79900
O415        O  0.74451823  0.53881271  0.12616218    -0.81200
O416        O  0.72987559  0.63112309  0.03594042    -0.81500
Eu417      Eu  0.73744918  0.56372659  0.05872310     2.39200
O418        O  0.77533835  0.50815567  0.05825414    -0.89000
O419        O  0.70230774  0.56387194  0.00145105    -0.92600
C420        C  0.72828164  0.64880018  0.00261196     1.02100
C421        C  0.74740303  0.50525655  0.14334978     1.01900
C422        C  0.63764897  0.57704925  0.06926487     1.01900
C423        C  0.83489242  0.58196996  0.07250797     0.99700
H424        H  0.68075437  0.50844535  0.08121364     0.29500
O425        O  0.69730388  0.50828920  0.05799384    -1.01400
H426        H  0.79456772  0.58896620  0.00452729     0.29500
O427        O  0.77900867  0.56555946  0.00370179    -1.03900
O428        O  0.72662054  0.38604143  0.03405758    -0.81100
O429        O  0.75734909  0.54365165  0.87960375    -0.80700
O430        O  0.62666555  0.46640261  0.04885460    -0.79100
O431        O  0.84642466  0.46469634  0.05018524    -0.82500
O432        O  0.85150142  0.55897663  0.96139684    -0.80300
O433        O  0.63397903  0.55598551  0.95458111    -0.79000
O434        O  0.67754647  0.43898334  0.91672508    -0.80500
O435        O  0.80150636  0.42766017  0.92884849    -0.82400
O436        O  0.62974958  0.46795647  0.95214805    -0.79200
O437        O  0.84813987  0.46196105  0.96009254    -0.81800
O438        O  0.67080660  0.43491347  0.08534112    -0.77600
O439        O  0.68242078  0.58693776  0.91955619    -0.77600
O440        O  0.80702666  0.59643697  0.93127305    -0.77200
O441        O  0.79795033  0.42752292  0.07881086    -0.80700
O442        O  0.72958018  0.38908643  0.96770077    -0.80200
O443        O  0.75487981  0.47728301  0.88007914    -0.78500
Eu444      Eu  0.73529209  0.45245418  0.05830352     2.39800
Eu445      Eu  0.74362259  0.56647409  0.94637735     2.39600
Eu446      Eu  0.66124590  0.50914948  0.00035367     2.38400
Eu447      Eu  0.81734502  0.50973985  0.00366339     2.39900
Eu448      Eu  0.73978128  0.45583457  0.94644794     2.39800
O449        O  0.78121438  0.51068154  0.94694660    -0.92900
O450        O  0.69839570  0.45310996  0.00151643    -0.91800
C451        C  0.72465372  0.37048658  0.00015667     1.02300
C452        C  0.76085161  0.51038860  0.86292145     1.01000
C453        C  0.63583628  0.44350883  0.07729919     1.00400
C454        C  0.83387224  0.43693836  0.07309847     1.02400
C455        C  0.84192124  0.58809607  0.93957693     1.01300
C456        C  0.64652917  0.58003635  0.92775893     1.00200
C457        C  0.64184689  0.44634058  0.92425008     1.00200
C458        C  0.83686863  0.43478998  0.93699154     1.02800
H459        H  0.68838609  0.51221218  0.92092047     0.30200
O460        O  0.70252287  0.51151448  0.94472631    -1.05100
H461        H  0.79114127  0.43087513  0.00340868     0.32200
O462        O  0.77643745  0.45404911  0.00308282    -1.07600
O463        O  0.25448760  0.62872836  0.96088168    -0.80200
O464        O  0.22508729  0.47074319  0.11978825    -0.81700
O465        O  0.17844995  0.58822749  0.07027321    -0.78800
O466        O  0.30326645  0.57637450  0.07921503    -0.77100
O467        O  0.35026694  0.54558586  0.04496079    -0.78900
O468        O  0.13089862  0.55438381  0.04031202    -0.79900
O469        O  0.22980755  0.53702960  0.11776630    -0.81200
O470        O  0.25181819  0.62788562  0.02757677    -0.81500
Eu471      Eu  0.24048445  0.56094726  0.05087964     2.39200
O472        O  0.27602470  0.50411041  0.05267388    -0.89000
O473        O  0.20357759  0.56238294  0.99460427    -0.92600
C474        C  0.25709071  0.64529464  0.99428414     1.02100
C475        C  0.22390695  0.50422980  0.13590730     1.01900
C476        C  0.14271494  0.58098045  0.06363703     1.01900
C477        C  0.33889667  0.56814366  0.07246724     0.99700
H478        H  0.17996067  0.50707767  0.07409567     0.29500
O479        O  0.19801662  0.50672946  0.05197249    -1.01400
H480        H  0.30026131  0.58247777  0.99552292     0.29500
O481        O  0.28194209  0.56086705  0.99562829    -1.03900
O482        O  0.24080102  0.38243340  0.03267397    -0.81100
O483        O  0.23714967  0.53839660  0.87227661    -0.80700
O484        O  0.12435438  0.46056043  0.03760432    -0.79100
O485        O  0.34444640  0.45894945  0.04494598    -0.82500
O486        O  0.35329654  0.54484636  0.94861487    -0.80300
O487        O  0.13540230  0.55512006  0.95086365    -0.79000
O488        O  0.17512740  0.42462301  0.92432395    -0.80500
O489        O  0.30118519  0.42981388  0.91666471    -0.82400
O490        O  0.12923564  0.46225339  0.95336796    -0.79200
O491        O  0.34731531  0.46005339  0.95210690    -0.81800
O492        O  0.16851666  0.42380784  0.06856500    -0.77600
O493        O  0.18405233  0.58858726  0.91816951    -0.77600
O494        O  0.30942108  0.57477588  0.91019565    -0.77200
O495        O  0.29479422  0.43035385  0.08083372    -0.80700
O496        O  0.24435195  0.38132888  0.96636543    -0.80200
O497        O  0.23339381  0.47206731  0.87345327    -0.78500
Eu498      Eu  0.23391970  0.44972933  0.05285305     2.39800
Eu499      Eu  0.24474204  0.56113048  0.93912353     2.39600
Eu500      Eu  0.16154463  0.50774556  0.99616827     2.38400
Eu501      Eu  0.31735250  0.50414749  0.99758704     2.39900
Eu502      Eu  0.23857238  0.44934629  0.94190962     2.39800
O503        O  0.28031711  0.50403215  0.94112204    -0.92900
O504        O  0.19713544  0.45024541  0.99681802    -0.91800
C505        C  0.24570997  0.36455924  0.00034696     1.02300
C506        C  0.23239368  0.50536936  0.85549407     1.01000
C507        C  0.13348538  0.43199204  0.06017810     1.00400
C508        C  0.33072590  0.43654356  0.07253018     1.02400
C509        C  0.34416814  0.56639381  0.91923347     1.01300
C510        C  0.14824688  0.58143642  0.92652060     1.00200
C511        C  0.14011977  0.43436134  0.93139315     1.00200
C512        C  0.33643878  0.43716525  0.92502611     1.02800
H513        H  0.18605932  0.50684040  0.91856181     0.30200
O514        O  0.20250499  0.50654035  0.94105703    -1.05100
H515        H  0.29206747  0.42684044  0.99881864     0.32200
O516        O  0.27583237  0.44956949  0.99809631    -1.07600
C517        C  0.99340683  0.69902282  0.80117216     0.86400
C518        C  0.02600736  0.67341356  0.81656314    -0.53800
C519        C  0.03010542  0.67400345  0.85630243     0.09400
C520        C  0.99995848  0.69943471  0.87646937     0.20300
C521        C  0.95793384  0.68282777  0.82334643    -0.54500
C522        C  0.96111096  0.68252374  0.86263516     0.09500
C523        C  0.00173059  0.73919776  0.81753553    -0.54100
C524        C  0.00600253  0.73991688  0.85653651     0.10000
H525        H  0.04272247  0.65438395  0.79840858     0.14500
H526        H  0.00154164  0.70103763  0.90819842     0.00300
H527        H  0.93369231  0.66925058  0.80912596     0.14800
H528        H  0.00349463  0.76520314  0.79928864     0.14600
C529        C  0.98790088  0.31187161  0.80555029     0.86400
C530        C  0.95298465  0.33574603  0.81922878    -0.53800
C531        C  0.95330389  0.34469064  0.85795893     0.09400
C532        C  0.98804628  0.32904325  0.87942925     0.20300
C533        C  0.02251110  0.33739371  0.81761417    -0.54500
C534        C  0.02262183  0.34629247  0.85605777     0.09500
C535        C  0.98816853  0.27648303  0.83303616    -0.54100
C536        C  0.98849414  0.28529178  0.87149350     0.10000
H537        H  0.93102728  0.34623615  0.80007885     0.14500
H538        H  0.98745215  0.33585089  0.91089921     0.00300
H539        H  0.04495315  0.34792148  0.79775196     0.14800
H540        H  0.98868309  0.24674585  0.82286433     0.14600
C541        C  0.49569053  0.70808394  0.80615689     0.86400
C542        C  0.45939317  0.68667708  0.82261096    -0.53800
C543        C  0.46233163  0.64734712  0.82542481     0.09400
C544        C  0.50119622  0.63250232  0.80916765     0.20300
C545        C  0.52781743  0.69347776  0.83251061    -0.54500
C546        C  0.53088939  0.65377881  0.83405997     0.09500
C547        C  0.50329679  0.68976383  0.76674484    -0.54100
C548        C  0.50738858  0.65071868  0.76769933     0.10000
H549        H  0.43440779  0.70061123  0.83477065     0.14500
H550        H  0.50362978  0.60055282  0.80954887     0.00300
H551        H  0.54575540  0.71270769  0.84937410     0.14800
H552        H  0.50428541  0.70672299  0.73983952     0.14600
C553        C  0.48632453  0.70250840  0.19250457     0.86400
C554        C  0.51826067  0.68876736  0.16395599    -0.53800
C555        C  0.51943812  0.64955534  0.16037097     0.09400
C556        C  0.48862071  0.62719440  0.18432875     0.20300
C557        C  0.44940965  0.68466206  0.17577376    -0.54500
C558        C  0.45038148  0.64508376  0.17135893     0.09500
C559        C  0.49257191  0.67981479  0.23023163    -0.54100
C560        C  0.49500591  0.64079709  0.22618683     0.10000
H561        H  0.53790200  0.70729856  0.14688365     0.14500
H562        H  0.49006656  0.59520470  0.18089226     0.00300
H563        H  0.42616869  0.70222776  0.16527670     0.14800
H564        H  0.49394932  0.69386126  0.25809604     0.14600
C565        C  0.98537163  0.31022539  0.19495785     0.86400
C566        C  0.02074743  0.32718713  0.17218609    -0.53800
C567        C  0.01612951  0.33055434  0.13295457     0.09400
C568        C  0.97596744  0.31646751  0.11973506     0.20300
C569        C  0.95252635  0.33703281  0.18342564    -0.54500
C570        C  0.94742324  0.33997012  0.14429482     0.09500
C571        C  0.97713344  0.27171784  0.17507701    -0.54100
C572        C  0.97091784  0.27452395  0.13621100     0.10000
H573        H  0.04659485  0.33837488  0.18513357     0.14500
H574        H  0.97151645  0.31960419  0.08798580     0.00300
H575        H  0.93502121  0.35262482  0.20432776     0.14800
H576        H  0.97609629  0.24409524  0.19084871     0.14600
C577        C  0.99114044  0.70247786  0.19665392     0.86400
C578        C  0.95681122  0.67585869  0.18565838    -0.53800
C579        C  0.95536690  0.66777384  0.14703256     0.09400
C580        C  0.98863731  0.68646087  0.12263219     0.20300
C581        C  0.02624764  0.68006805  0.18128403    -0.54500
C582        C  0.02493482  0.67145447  0.14243475     0.09500
C583        C  0.98858268  0.73811095  0.16994935    -0.54100
C584        C  0.98703490  0.72999671  0.13154608     0.10000
H585        H  0.93539770  0.66415167  0.20614191     0.14500
H586        H  0.98773349  0.68067224  0.09102199     0.00300
H587        H  0.04906546  0.67014453  0.19971458     0.14800
H588        H  0.98739152  0.76763958  0.18066079     0.14600
C589        C  0.49128311  0.31359581  0.80415106     0.86400
C590        C  0.52774955  0.32824560  0.82415284    -0.53800
C591        C  0.52819294  0.36713035  0.83195599     0.09400
C592        C  0.49209920  0.38823930  0.81806663     0.20300
C593        C  0.45809675  0.32698549  0.83136750    -0.54500
C594        C  0.45881293  0.36577316  0.83837667     0.09500
C595        C  0.48772805  0.33941725  0.76782358    -0.54100
C596        C  0.48784000  0.37815288  0.77495382     0.10000
H597        H  0.55079077  0.30919269  0.83206088     0.14500
H598        H  0.49203401  0.41994840  0.82362964     0.00300
H599        H  0.43522999  0.30903245  0.84419792     0.14800
H600        H  0.48439085  0.32798581  0.73877252     0.14600
C601        C  0.48160624  0.30700881  0.19329903     0.86400
C602        C  0.44743712  0.31759982  0.16784484    -0.53800
C603        C  0.44292548  0.35681295  0.16249813     0.09400
C604        C  0.47312913  0.38186235  0.18335155     0.20300
C605        C  0.51644637  0.32832595  0.17321728    -0.54500
C606        C  0.51192602  0.36723636  0.16774831     0.09500
C607        C  0.47522456  0.32922783  0.23106489    -0.54100
C608        C  0.46985944  0.36789975  0.22609443     0.10000
H609        H  0.42824408  0.29583415  0.15614977     0.14500
H610        H  0.47029708  0.41375361  0.17959548     0.00300
H611        H  0.54266149  0.31503151  0.16319467     0.14800
H612        H  0.47586474  0.31561336  0.25977767     0.14600
O613        O  0.56491514  0.41840485  0.44134102    -0.80200
O614        O  0.45411657  0.48486146  0.61928721    -0.81700
O615        O  0.58171355  0.45454929  0.56764678    -0.78800
O616        O  0.47937270  0.38127382  0.52910160    -0.77100
O617        O  0.43065879  0.39320955  0.48702519    -0.78900
O618        O  0.59599960  0.51937434  0.56061170    -0.79900
O619        O  0.49706781  0.43706179  0.60531096    -0.81200
O620        O  0.55607693  0.39848598  0.50471174    -0.81500
Eu621      Eu  0.51650870  0.44384998  0.53787399     2.39200
O622        O  0.45134578  0.46275186  0.53639459    -0.89000
O623        O  0.55552038  0.48752210  0.50079840    -0.92600
C624        C  0.56704462  0.39281758  0.46945332     1.02100
C625        C  0.47526605  0.45573451  0.62881094     1.01900
C626        C  0.60379810  0.48501899  0.57236895     1.01900
C627        C  0.45089037  0.37027263  0.50780643     0.99700
H628        H  0.52053292  0.50665615  0.58755062     0.29500
O629        O  0.51102152  0.50698700  0.56159584    -1.01400
H630        H  0.49645296  0.41761346  0.46265697     0.29500
O631        O  0.49539149  0.44292654  0.47358030    -1.03900
O632        O  0.42246099  0.59606101  0.55528427    -0.81100
O633        O  0.52801099  0.52394412  0.37635801    -0.80700
O634        O  0.53740076  0.57716088  0.59234271    -0.79100
O635        O  0.37014904  0.46681012  0.51087596    -0.82500
O636        O  0.44346073  0.43889428  0.40139835    -0.80300
O637        O  0.60968712  0.55183109  0.48517931    -0.79000
O638        O  0.50095296  0.63019490  0.46158449    -0.80500
O639        O  0.39727262  0.55642796  0.42909844    -0.82400
O640        O  0.54735761  0.61974244  0.50665396    -0.79200
O641        O  0.38292324  0.49152969  0.43350527    -0.81800
O642        O  0.47535531  0.56286029  0.61117167    -0.77600
O643        O  0.60108030  0.51063072  0.43415473    -0.77600
O644        O  0.50706063  0.44839436  0.38658348    -0.77200
O645        O  0.38059009  0.50695902  0.56249263    -0.80700
O646        O  0.42864938  0.61586105  0.49160343    -0.80200
O647        O  0.48259986  0.57011475  0.38796814    -0.78500
Eu648      Eu  0.44701766  0.52706344  0.56006103     2.39800
Eu649      Eu  0.53549160  0.48508271  0.43660555     2.39600
Eu650      Eu  0.54839114  0.55127293  0.52413414     2.38400
Eu651      Eu  0.43142945  0.46209009  0.47084393     2.39900
Eu652      Eu  0.46361966  0.56767406  0.45618802     2.39800
O653        O  0.47104460  0.50451843  0.43346182    -0.92900
O654        O  0.48447756  0.56943963  0.52067811    -0.91800
C655        C  0.41987237  0.62198583  0.52745749     1.02300
C656        C  0.50620004  0.55195734  0.36576761     1.01000
C657        C  0.50887938  0.57659031  0.61773607     1.00400
C658        C  0.35895698  0.48579595  0.54141494     1.02400
C659        C  0.47331076  0.43711135  0.37772652     1.01300
C660        C  0.62158631  0.53390008  0.45443210     1.00200
C661        C  0.52861753  0.64176265  0.48356939     1.00200
C662        C  0.37428685  0.52645490  0.42499150     1.02800
H663        H  0.54464951  0.56706484  0.44280738     0.30200
O664        O  0.52891702  0.54949102  0.45871430    -1.05100
H665        H  0.40014491  0.53451332  0.49620181     0.32200
O666        O  0.42618506  0.52537742  0.49583884    -1.07600
O667        O  0.08206345  0.93820245  0.05505904    -0.80200
O668        O  0.00173372  0.04627072  0.88018140    -0.81700
O669        O  0.04192096  0.91474094  0.93269841    -0.78800
O670        O  0.11146086  0.02485372  0.96368971    -0.77100
O671        O  0.09553545  0.07642973  0.00179430    -0.78900
O672        O  0.97979041  0.89442767  0.94512134    -0.79900
O673        O  0.05219012  0.00558132  0.89057754    -0.81200
O674        O  0.10052905  0.94857873  0.99135309    -0.81500
Eu675      Eu  0.05094594  0.98364168  0.95853763     2.39200
O676        O  0.02724490  0.04809346  0.96023875    -0.89000
O677        O  0.01190470  0.94390603  0.00000660    -0.92600
C678        C  0.10694376  0.93678672  0.02622133     1.02100
C679        C  0.03197190  0.02781607  0.86890728     1.01900
C680        C  0.01397225  0.88876743  0.93229767     1.01900
C681        C  0.12005465  0.05626503  0.98249405     0.99700
H682        H  0.98745197  0.97454520  0.91287451     0.29500
O683        O  0.98688103  0.98457835  0.93926353    -1.01400
H684        H  0.07863004  0.00882746  0.03162422     0.29500
O685        O  0.05223626  0.00799473  0.02212902    -1.03900
O686        O  0.89485730  0.07324724  0.95028106    -0.81100
O687        O  0.97908255  0.97072646  0.12637143    -0.80700
O688        O  0.92158775  0.94933557  0.91097765    -0.79100
O689        O  0.02103992  0.13212298  0.98424647    -0.82500
O690        O  0.06268877  0.06566968  0.08857366    -0.80300
O691        O  0.95164177  0.88534031  0.02329045    -0.79000
O692        O  0.86767773  0.99032153  0.04163661    -0.80500
O693        O  0.93193291  0.09689738  0.07409161    -0.82400
O694        O  0.87945173  0.94228831  0.99767039    -0.79200
O695        O  0.99418516  0.11761258  0.06291448    -0.81800
O696        O  0.92698356  0.01355160  0.89343171    -0.77600
O697        O  0.99638011  0.89915122  0.06914411    -0.77600
O698        O  0.05534225  0.00206949  0.10827874    -0.77200
O699        O  0.97827505  0.11711919  0.93691162    -0.80700
O700        O  0.87874538  0.06493886  0.01469943    -0.80200
O701        O  0.92748925  0.00953493  0.11536917    -0.78500
Eu702      Eu  0.96224458  0.04803791  0.94121129     2.39800
Eu703      Eu  0.01587483  0.96675437  0.06381092     2.39600
Eu704      Eu  0.94742158  0.94412218  0.97962931     2.38400
Eu705      Eu  0.02908909  0.07146412  0.02454696     2.39900
Eu706      Eu  0.92791691  0.02992355  0.04702386     2.39800
O707        O  0.99210665  0.03034805  0.06667067    -0.92900
O708        O  0.92460029  0.00743549  0.98282110    -0.91800
C709        C  0.87101594  0.07560251  0.97989079     1.02300
C710        C  0.94846283  0.98860914  0.13750806     1.01000
C711        C  0.91860304  0.97804632  0.88606073     1.00400
C712        C  0.99954796  0.14140023  0.95527395     1.02400
C713        C  0.06840496  0.03683580  0.11250778     1.01300
C714        C  0.97309767  0.87584462  0.05218739     1.00200
C715        C  0.85713022  0.96141077  0.02041097     1.00200
C716        C  0.95937795  0.12289964  0.07468272     1.02800
H717        H  0.93518120  0.94935151  0.06179628     0.30200
O718        O  0.95078897  0.96592952  0.04459347    -1.05100
H719        H  0.95398489  0.09632810  0.00433037     0.32200
O720        O  0.96497109  0.07037493  0.00466991    -1.07600
C721        C  0.43588499  0.40629846  0.32336765    -0.12300
C722        C  0.47044131  0.42251002  0.33686802     0.04700
C723        C  0.50266270  0.42545275  0.31003898    -0.07600
C724        C  0.50008257  0.41092095  0.27256724    -0.08400
C725        C  0.46654729  0.39303032  0.26032520    -0.02900
C726        C  0.43382416  0.39163189  0.28536446     0.03900
N727        N  0.39848096  0.37507570  0.27246670     0.66400
H728        H  0.41062031  0.40449321  0.34239028     0.15300
H729        H  0.52546570  0.41156760  0.25357519     0.15000
N730        N  0.53892613  0.44236126  0.32004202     0.74100
O731        O  0.38737025  0.34187204  0.28459343    -0.39300
O732        O  0.37817479  0.39376205  0.24900642    -0.39300
O733        O  0.56537748  0.42046968  0.33108724    -0.40000
O734        O  0.54742776  0.47647546  0.30839215    -0.40000
C735        C  0.51615401  0.42013639  0.72307251    -0.12300
C736        C  0.48308193  0.40647346  0.74297498     0.04700
C737        C  0.44661053  0.41378462  0.72749732    -0.07600
C738        C  0.44392270  0.43222668  0.69100496    -0.08400
C739        C  0.47727937  0.44317810  0.66977219    -0.02900
C740        C  0.51358176  0.43848844  0.68676946     0.03900
N741        N  0.54819946  0.45160082  0.66704126     0.66400
H742        H  0.54423241  0.41468467  0.73481695     0.15300
H743        H  0.41595546  0.43608583  0.67842196     0.15000
N744        N  0.41215976  0.40120834  0.74766397     0.74100
O745        O  0.56042016  0.48590118  0.67194258    -0.39300
O746        O  0.57015784  0.42714116  0.65162050    -0.39300
O747        O  0.39244902  0.42592753  0.76559823    -0.40000
O748        O  0.39686625  0.36892759  0.73937800    -0.40000
C749        C  0.94613756  0.77548231  0.09457367    -0.12300
C750        C  0.98294432  0.76167384  0.10263828     0.04700
C751        C  0.01551009  0.78360334  0.09037746    -0.07600
C752        C  0.01102704  0.82010978  0.07312529    -0.08400
C753        C  0.97440139  0.83508717  0.06645276    -0.02900
C754        C  0.94161465  0.81182301  0.07599613     0.03900
N755        N  0.90380924  0.82593832  0.07023351     0.66400
H756        H  0.92087361  0.75904070  0.10472285     0.15300
H757        H  0.03645341  0.83728489  0.06519566     0.15000
N758        N  0.05336272  0.76999668  0.09714964     0.74100
O759        O  0.88599447  0.81634598  0.04019616    -0.39300
O760        O  0.88555168  0.84060496  0.09838146    -0.39300
O761        O  0.07118343  0.75244501  0.07050500    -0.40000
O762        O  0.07143475  0.78190772  0.12618361    -0.40000
C763        C  0.97205570  0.19274614  0.06424638    -0.12300
C764        C  0.95184369  0.16339830  0.08577552     0.04700
C765        C  0.93058652  0.17365257  0.11915144    -0.07600
C766        C  0.93415167  0.21164864  0.13300049    -0.08400
C767        C  0.95923009  0.23936632  0.11447607    -0.02900
C768        C  0.97643945  0.23024565  0.07847282     0.03900
N769        N  0.00264900  0.25654744  0.05856545     0.66400
H770        H  0.98754888  0.18565901  0.03761725     0.15300
H771        H  0.91913397  0.21878652  0.15983090     0.15000
N772        N  0.90813205  0.14542124  0.14105316     0.74100
O773        O  0.03757024  0.25658989  0.06752524    -0.39300
O774        O  0.99346466  0.27119653  0.02629640    -0.39300
O775        O  0.91940966  0.13413233  0.17389069    -0.40000
O776        O  0.87372714  0.13880599  0.13194711    -0.40000
C777        C  0.53464482  0.59872451  0.31974528    -0.12300
C778        C  0.50961005  0.56709594  0.32603482     0.04700
C779        C  0.48262278  0.55737532  0.29770767    -0.07600
C780        C  0.48019054  0.58061584  0.26415361    -0.08400
C781        C  0.50305844  0.61441720  0.25928923    -0.02900
C782        C  0.53149582  0.62290159  0.28715816     0.03900
N783        N  0.55718710  0.65589799  0.28386512     0.66400
H784        H  0.55489697  0.60661649  0.34192360     0.15300
H785        H  0.45833573  0.57374486  0.24323539     0.15000
N786        N  0.45573825  0.52581377  0.30371979     0.74100
O787        O  0.54704716  0.68726208  0.29922751    -0.39300
O788        O  0.59273480  0.64971172  0.28064641    -0.39300
O789        O  0.42483891  0.53151712  0.32256284    -0.40000
O790        O  0.45777740  0.49680553  0.28182188    -0.40000
C791        C  0.53723113  0.62453823  0.66329014    -0.12300
C792        C  0.51340673  0.59209160  0.65761903     0.04700
C793        C  0.49154441  0.57667429  0.69018515    -0.07600
C794        C  0.49276392  0.59480136  0.72621269    -0.08400
C795        C  0.51424467  0.62874834  0.73115042    -0.02900
C796        C  0.53768127  0.64312872  0.69938525     0.03900
N797        N  0.56199424  0.67670822  0.70283192     0.66400
H798        H  0.55443430  0.63660696  0.63915064     0.15300
H799        H  0.47448047  0.58342789  0.74986465     0.15000
N800        N  0.46724541  0.54286020  0.68786806     0.74100
O801        O  0.59449633  0.67300287  0.71782275    -0.39300
O802        O  0.55593548  0.70626247  0.68178733    -0.39300
O803        O  0.47315319  0.51500167  0.71109817    -0.40000
O804        O  0.43380492  0.54659952  0.67502194    -0.40000
C805        C  0.96083779  0.19563030  0.92993927    -0.12300
C806        C  0.99690761  0.18259791  0.94188028     0.04700
C807        C  0.02917372  0.20776949  0.93679283    -0.07600
C808        C  0.02563070  0.24319360  0.91623093    -0.08400
C809        C  0.99003052  0.25433109  0.90169529    -0.02900
C810        C  0.95718346  0.23125810  0.91037541     0.03900
N811        N  0.92018207  0.24311629  0.89804139     0.66400
H812        H  0.93547540  0.17735912  0.93479931     0.15300
H813        H  0.05113058  0.26085854  0.90958166     0.15000
N814        N  0.06614666  0.19647638  0.94943537     0.74100
O815        O  0.90749191  0.23176964  0.86597813    -0.39300
O816        O  0.90219272  0.26837170  0.91703089    -0.39300
O817        O  0.08897555  0.18032353  0.92594685    -0.40000
O818        O  0.07835992  0.20875398  0.98135471    -0.40000
C819        C  0.99555673  0.78169943  0.91300389    -0.12300
C820        C  0.01432700  0.77672181  0.87745146     0.04700
C821        C  0.03814232  0.80769592  0.86214719    -0.07600
C822        C  0.04003156  0.84358716  0.88145659    -0.08400
C823        C  0.01916960  0.84906354  0.91626004    -0.02900
C824        C  0.99799594  0.81667248  0.93257822     0.03900
N825        N  0.97862764  0.81784204  0.96950133     0.66400
H826        H  0.97715818  0.75873147  0.92543765     0.15300
H827        H  0.05675487  0.86752944  0.86847607     0.15000
N828        N  0.06110472  0.80316052  0.82756480     0.74100
O829        O  0.94353896  0.82650030  0.97036490    -0.39300
O830        O  0.99059525  0.79554452  0.99582715    -0.39300
O831        O  0.05369362  0.82274707  0.79740424    -0.40000
O832        O  0.09330949  0.78715529  0.82988794    -0.40000
C833        C  0.09952149  0.42350240  0.87512877    -0.12300
C834        C  0.11024319  0.41210319  0.91240325     0.04700
C835        C  0.09239495  0.37970378  0.93091649    -0.07600
C836        C  0.06440432  0.35858845  0.91159302    -0.08400
C837        C  0.05332924  0.36963019  0.87409715    -0.02900
C838        C  0.07122294  0.40268707  0.85567144     0.03900
N839        N  0.06071881  0.41629211  0.81791381     0.66400
H840        H  0.11297574  0.44895071  0.86119524     0.15300
H841        H  0.05148255  0.33324702  0.92612111     0.15000
N842        N  0.10164883  0.36845644  0.96968603     0.74100
O843        O  0.03573853  0.44220141  0.81519611    -0.39300
O844        O  0.08345020  0.41113551  0.78937291    -0.39300
O845        O  0.07809479  0.37537493  0.99704634    -0.40000
O846        O  0.12738247  0.34372128  0.97498921    -0.40000
C847        C  0.11212003  0.36896692  0.09172813    -0.12300
C848        C  0.10215758  0.40564079  0.07676680     0.04700
C849        C  0.06261038  0.41504493  0.07665093    -0.07600
C850        C  0.03468648  0.38833834  0.09164023    -0.08400
C851        C  0.04512657  0.35281032  0.10844192    -0.02900
C852        C  0.08435516  0.34295422  0.10777220     0.03900
N853        N  0.09672830  0.30670401  0.12352769     0.66400
H854        H  0.14190110  0.36030385  0.09146269     0.15300
H855        H  0.00484158  0.39660627  0.09244920     0.15000
N856        N  0.05027750  0.45233165  0.06366408     0.74100
O857        O  0.10523984  0.27981992  0.10050667    -0.39300
O858        O  0.10974408  0.30572186  0.15747334    -0.39300
O859        O  0.03066044  0.45498918  0.03335717    -0.40000
O860        O  0.05168490  0.48060244  0.08658567    -0.40000
C861        C  0.09373973  0.65600380  0.12855471    -0.12300
C862        C  0.05472025  0.64796969  0.12216082     0.04700
C863        C  0.04496165  0.61751304  0.09683694    -0.07600
C864        C  0.07392697  0.59654277  0.07811347    -0.08400
C865        C  0.11308322  0.60461687  0.08418062    -0.02900
C866        C  0.12276774  0.63477284  0.11011309     0.03900
N867        N  0.16186934  0.64428644  0.11836322     0.66400
H868        H  0.10184664  0.67921637  0.14787364     0.15300
H869        H  0.06538982  0.57318561  0.05917070     0.15000
N870        N  0.00593822  0.60526540  0.09189911     0.74100
O871        O  0.18050232  0.66862522  0.09711352    -0.39300
O872        O  0.17816299  0.62750665  0.14622261    -0.39300
O873        O  0.98996110  0.61279409  0.06015069    -0.40000
O874        O  0.99237516  0.57791842  0.11320654    -0.40000
C875        C  0.08682804  0.61546683  0.93080294    -0.12300
C876        C  0.11931236  0.60600914  0.90844897     0.04700
C877        C  0.12334817  0.62051890  0.87013587    -0.07600
C878        C  0.09482647  0.64386565  0.85487249    -0.08400
C879        C  0.06096334  0.65208484  0.87642609    -0.02900
C880        C  0.05777734  0.63810780  0.91559848     0.03900
N881        N  0.02598980  0.64615490  0.94111852     0.66400
H882        H  0.08386287  0.60521681  0.96075309     0.15300
H883        H  0.09937931  0.65507870  0.82550914     0.15000
N884        N  0.15442471  0.60913974  0.84519613     0.74100
O885        O  0.00137967  0.61952102  0.94855922    -0.39300
O886        O  0.03004654  0.67282998  0.96558905    -0.39300
O887        O  0.15013640  0.57951365  0.82444429    -0.40000
O888        O  0.18164334  0.63294251  0.83730981    -0.40000
C889        C  0.40443616  0.41881989  0.91677397    -0.12300
C890        C  0.36706327  0.41831996  0.90222611     0.04700
C891        C  0.36022273  0.40018147  0.86636918    -0.07600
C892        C  0.39046139  0.38242712  0.84654268    -0.08400
C893        C  0.42789374  0.38431614  0.86064614    -0.02900
C894        C  0.43482421  0.40251818  0.89613945     0.03900
N895        N  0.47199782  0.40303615  0.91284079     0.66400
H896        H  0.41041362  0.43205019  0.94445256     0.15300
H897        H  0.38488496  0.36784079  0.81950004     0.15000
N898        N  0.32341072  0.40108377  0.84879754     0.74100
O899        O  0.49579848  0.42954729  0.90251170    -0.39300
O900        O  0.47623651  0.38569476  0.94502245    -0.39300
O901        O  0.31220488  0.43206070  0.83294332    -0.40000
O902        O  0.30130062  0.37158080  0.85083929    -0.40000
C903        C  0.41535582  0.59148957  0.83577789    -0.12300
C904        C  0.43446552  0.62413876  0.85066858     0.04700
C905        C  0.42455011  0.63622126  0.88891411    -0.07600
C906        C  0.39585571  0.61615281  0.91078714    -0.08400
C907        C  0.37590108  0.58452319  0.89543053    -0.02900
C908        C  0.38586692  0.57196763  0.85762258     0.03900
N909        N  0.36614696  0.53969221  0.84095879     0.66400
H910        H  0.42236065  0.58197658  0.80659665     0.15300
H911        H  0.38849267  0.62595769  0.93981307     0.15000
N912        N  0.44302554  0.66910042  0.90605120     0.74100
O913        O  0.33898453  0.54571329  0.81807426    -0.39300
O914        O  0.38061393  0.50638959  0.84281172    -0.39300
O915        O  0.42423686  0.69967194  0.91125571    -0.40000
O916        O  0.47383454  0.66460015  0.92406107    -0.40000
C917        C  0.35553529  0.60996609  0.12892223    -0.12300
C918        C  0.36819826  0.58604104  0.09846471     0.04700
C919        C  0.40827612  0.57991560  0.09418537    -0.07600
C920        C  0.43410043  0.59833178  0.11909455    -0.08400
C921        C  0.42130678  0.62322294  0.14848980    -0.02900
C922        C  0.38140274  0.62845817  0.15359841     0.03900
N923        N  0.36635756  0.65144796  0.18446713     0.66400
H924        H  0.32511754  0.61454054  0.13393532     0.15300
H925        H  0.46458556  0.59384397  0.11457430     0.15000
N926        N  0.42358981  0.55542768  0.06465057     0.74100
O927        O  0.35200936  0.68391211  0.17642734    -0.39300
O928        O  0.35800917  0.63524299  0.21683887    -0.39300
O929        O  0.43790161  0.57056679  0.03378201    -0.40000
O930        O  0.43041305  0.52040204  0.07286687    -0.40000
C931        C  0.39603340  0.40928456  0.15378193    -0.12300
C932        C  0.41176481  0.37464959  0.13993404     0.04700
C933        C  0.39905204  0.35981158  0.10412602    -0.07600
C934        C  0.37306012  0.38097818  0.08222207    -0.08400
C935        C  0.35826116  0.41576661  0.09602883    -0.02900
C936        C  0.36922908  0.42965030  0.13236490     0.03900
N937        N  0.35382941  0.46465335  0.14761041     0.66400
H938        H  0.40461922  0.42088749  0.18141168     0.15300
H939        H  0.36404443  0.36997168  0.05441319     0.15000
N940        N  0.41212002  0.32369822  0.08926024     0.74100
O941        O  0.37188296  0.49643195  0.14173287    -0.39300
O942        O  0.32732470  0.46262303  0.17331502    -0.39300
O943        O  0.39020057  0.29409303  0.09235858    -0.40000
O944        O  0.43972888  0.32369819  0.06480255    -0.40000
C945        C  0.56569576  0.42839628  0.09002568    -0.12300
C946        C  0.60389912  0.42638111  0.10253893     0.04700
C947        C  0.61044314  0.40822342  0.13907861    -0.07600
C948        C  0.57979375  0.39069900  0.16048272    -0.08400
C949        C  0.54208334  0.39151933  0.14709450    -0.02900
C950        C  0.53497691  0.41151221  0.11198220     0.03900
N951        N  0.49714749  0.41288664  0.09685762     0.66400
H952        H  0.55949793  0.44245920  0.06252262     0.15300
H953        H  0.58558462  0.37586171  0.18771785     0.15000
N954        N  0.64779313  0.40778955  0.15546371     0.74100
O955        O  0.47673712  0.44202929  0.10369075    -0.39300
O956        O  0.48832563  0.39070089  0.06945939    -0.39300
O957        O  0.65695918  0.43352135  0.17950855    -0.40000
O958        O  0.66769103  0.37763437  0.15277334    -0.40000
C959        C  0.61160923  0.60117405  0.13122906    -0.12300
C960        C  0.60689771  0.59628714  0.09130357     0.04700
C961        C  0.57283690  0.60910961  0.07387497    -0.07600
C962        C  0.54422162  0.62618345  0.09688862    -0.08400
C963        C  0.54915481  0.63057320  0.13686710    -0.02900
C964        C  0.58312754  0.61813292  0.15395489     0.03900
N965        N  0.58989787  0.62380649  0.19416763     0.66400
H966        H  0.63751402  0.59153666  0.14507410     0.15300
H967        H  0.51839917  0.63657440  0.08346512     0.15000
N968        N  0.56779542  0.60698324  0.03278457     0.74100
O969        O  0.58550768  0.59527260  0.21745574    -0.39300
O970        O  0.61074281  0.65237370  0.20363037    -0.39300
O971        O  0.54454781  0.58217427  0.01957666    -0.40000
O972        O  0.58004602  0.63457273  0.01096111    -0.40000
C973        C  0.57951659  0.58500050  0.90490984    -0.12300
C974        C  0.61735068  0.59998197  0.90414832     0.04700
C975        C  0.62641730  0.63261963  0.87991819    -0.07600
C976        C  0.59792296  0.64913558  0.85717102    -0.08400
C977        C  0.56010940  0.63392884  0.85782646    -0.02900
C978        C  0.55111245  0.60112455  0.88194553     0.03900
N979        N  0.51328431  0.58414425  0.88489203     0.66400
H980        H  0.57174940  0.55990223  0.92306695     0.15300
H981        H  0.60547158  0.67415948  0.83881530     0.15000
N982        N  0.66410632  0.64997011  0.87862209     0.74100
O983        O  0.50551904  0.55538768  0.86392084    -0.39300
O984        O  0.49431341  0.58785156  0.91630887    -0.39300
O985        O  0.68692835  0.64325936  0.85054115    -0.40000
O986        O  0.67507121  0.67097371  0.90618293    -0.40000
C987        C  0.59667242  0.39173339  0.91352719    -0.12300
C988        C  0.61259011  0.42723752  0.90030084     0.04700
C989        C  0.60064947  0.44313896  0.86460588    -0.07600
C990        C  0.57335951  0.42298558  0.84267504    -0.08400
C991        C  0.55842536  0.38655528  0.85520799    -0.02900
C992        C  0.57068766  0.37076874  0.89106814     0.03900
N993        N  0.55695362  0.33375292  0.90557643     0.66400
H994        H  0.60504722  0.37976576  0.94135997     0.15300
H995        H  0.56399659  0.43575161  0.81555818     0.15000
N996        N  0.61524072  0.47999675  0.85065913     0.74100
O997        O  0.57712475  0.30428194  0.89946586    -0.39300
O998        O  0.53248214  0.33245830  0.93324475    -0.39300
O999        O  0.64025578  0.48125796  0.82345275    -0.40000
O1000       O  0.59680604  0.51021078  0.85849296    -0.40000
C1001       C  0.85505684  0.37310264  0.09902702    -0.12300
C1002       C  0.86273502  0.41306452  0.09313210     0.04700
C1003       C  0.89829469  0.42879744  0.10531161    -0.07600
C1004       C  0.92511019  0.40458743  0.12270394    -0.08400
C1005       C  0.91773907  0.36465241  0.12728167    -0.02900
C1006       C  0.88234118  0.34886311  0.11559218     0.03900
N1007       N  0.87366809  0.30830248  0.12044992     0.66400
H1008       H  0.82807995  0.36036428  0.08985485     0.15300
H1009       H  0.95199436  0.41703648  0.13243591     0.15000
N1010       N  0.90744845  0.46931730  0.10098565     0.74100
O1011       O  0.85583789  0.29626870  0.15082763    -0.39300
O1012       O  0.87661232  0.28626105  0.09157327    -0.39300
O1013       O  0.90311144  0.49117232  0.12983939    -0.40000
O1014       O  0.92819566  0.48095505  0.07235186    -0.40000
C1015       C  0.88577101  0.35453785  0.87959131    -0.12300
C1016       C  0.92375956  0.36847154  0.87748795     0.04700
C1017       C  0.93331816  0.40338162  0.89632884    -0.07600
C1018       C  0.90474134  0.42428690  0.91560487    -0.08400
C1019       C  0.86657806  0.41044096  0.91798432    -0.02900
C1020       C  0.85751472  0.37431575  0.90069676     0.03900
N1021       N  0.82061572  0.35589355  0.90631150     0.66400
H1022       H  0.87838887  0.32707849  0.86634975     0.15300
H1023       H  0.91262899  0.45173402  0.92856462     0.15000
N1024       N  0.97163559  0.41892218  0.89524647     0.74100
O1025       O  0.80043983  0.34902174  0.87711360    -0.39300
O1026       O  0.81295205  0.33806438  0.93800908    -0.39300
O1027       O  0.97980070  0.44654890  0.87178854    -0.40000
O1028       O  0.99212476  0.41428627  0.92469987    -0.40000
C1029       C  0.90121523  0.67663390  0.90314655    -0.12300
C1030       C  0.93353470  0.65879207  0.88696639     0.04700
C1031       C  0.93554919  0.61775985  0.88831843    -0.07600
C1032       C  0.90650935  0.59575115  0.90776791    -0.08400
C1033       C  0.87333480  0.61334183  0.92259457    -0.02900
C1034       C  0.87054084  0.65433126  0.91956832     0.03900
N1035       N  0.83608371  0.67366374  0.93080991     0.66400
H1036       H  0.89858017  0.70790011  0.90053637     0.15300
H1037       H  0.90849494  0.56434641  0.90851896     0.15000
N1038       N  0.96446121  0.59776005  0.86654918     0.74100
O1039       O  0.83622570  0.69563473  0.95984992    -0.39300
O1040       O  0.81011788  0.67750857  0.90610765    -0.39300
O1041       O  0.98702682  0.57562550  0.88409408    -0.40000
O1042       O  0.96031355  0.59362102  0.83046003    -0.40000
C1043       C  0.90835822  0.65976547  0.09510113    -0.12300
C1044       C  0.92361014  0.64523447  0.12962800     0.04700
C1045       C  0.90800827  0.61027119  0.14632758    -0.07600
C1046       C  0.87867658  0.59019493  0.12737000    -0.08400
C1047       C  0.86415495  0.60466812  0.09256857    -0.02900
C1048       C  0.87860849  0.64005861  0.07680006     0.03900
N1049       N  0.86369567  0.65620726  0.04194919     0.66400
H1050       H  0.91919580  0.68696251  0.08241187     0.15300
H1051       H  0.86729515  0.56307451  0.13977656     0.15000
N1052       N  0.92177445  0.59427554  0.18191447     0.74100
O1053       O  0.83543787  0.67858027  0.04424918    -0.39300
O1054       O  0.88436726  0.65642872  0.01129446    -0.39300
O1055       O  0.90069812  0.59549531  0.21225203    -0.40000
O1056       O  0.94901002  0.57062620  0.18081114    -0.40000
C1057       C  0.03941823  0.99825006  0.80447391    -0.12300
C1058       C  0.04483573  0.03079322  0.82797277     0.04700
C1059       C  0.07064356  0.06058281  0.81550488    -0.07600
C1060       C  0.09333746  0.05575770  0.78185624    -0.08400
C1061       C  0.08987801  0.02201762  0.75973979    -0.02900
C1062       C  0.06152814  0.99377849  0.77026648     0.03900
N1063       N  0.05864321  0.95806615  0.74984452     0.66400
H1064       H  0.02018986  0.97476285  0.81436422     0.15300
H1065       H  0.11528111  0.07746170  0.77416898     0.15000
N1066       N  0.07649655  0.09425457  0.83855253     0.74100
O1067       O  0.07752439  0.92940000  0.76149194    -0.39300
O1068       O  0.03100293  0.95249131  0.72735007    -0.39300
O1069       O  0.10633284  0.09738122  0.85847023    -0.40000
O1070       O  0.05592086  0.12357314  0.83329862    -0.40000
C1071       C  0.13033081  0.00592407  0.19390677    -0.12300
C1072       C  0.11760936  0.02890546  0.22484803     0.04700
C1073       C  0.09274590  0.05989357  0.21662403    -0.07600
C1074       C  0.07953614  0.06565776  0.17832441    -0.08400
C1075       C  0.09150446  0.04137951  0.14794633    -0.02900
C1076       C  0.11873047  0.01268833  0.15592839     0.03900
N1077       N  0.13428814  0.98937671  0.12549129     0.66400
H1078       H  0.15027387  0.98269239  0.19911425     0.15300
H1079       H  0.05834797  0.08762565  0.17286772     0.15000
N1080       N  0.08121726  0.08601612  0.24642548     0.74100
O1081       O  0.16016795  0.00359417  0.10286129    -0.39300
O1082       O  0.12792077  0.95315906  0.12610630    -0.39300
O1083       O  0.09718136  0.11918202  0.24788107    -0.40000
O1084       O  0.05055791  0.07919841  0.26589396    -0.40000
C1085       C  0.21971934  0.54118378  0.19667696    -0.12300
C1086       C  0.21376190  0.50594781  0.17780660     0.04700
C1087       C  0.19618431  0.47454078  0.19885553    -0.07600
C1088       C  0.18706652  0.47843874  0.23841882    -0.08400
C1089       C  0.19419306  0.51357609  0.25787910    -0.02900
C1090       C  0.20942431  0.54562315  0.23563885     0.03900
N1091       N  0.21550956  0.58310033  0.25203424     0.66400
H1092       H  0.23232183  0.56609260  0.18106490     0.15300
H1093       H  0.17424757  0.45334865  0.25296861     0.15000
N1094       N  0.18607386  0.43887153  0.18048547     0.74100
O1095       O  0.24946499  0.59639945  0.25338036    -0.39300
O1096       O  0.18830863  0.60680041  0.25166640    -0.39300
O1097       O  0.20622789  0.40926604  0.18591466    -0.40000
O1098       O  0.15320438  0.43488581  0.16612208    -0.40000
C1099       C  0.26766894  0.50817154  0.40687851    -0.12300
C1100       C  0.25953908  0.53912372  0.38215131     0.04700
C1101       C  0.28848087  0.56785954  0.37394709    -0.07600
C1102       C  0.32513622  0.56412826  0.38949771    -0.08400
C1103       C  0.33434348  0.53127069  0.41151897    -0.02900
C1104       C  0.30461760  0.50309238  0.42062849     0.03900
N1105       N  0.31115373  0.46813246  0.44243452     0.66400
H1106       H  0.24600742  0.48561153  0.41280322     0.15300
H1107       H  0.34704009  0.58612649  0.38251466     0.15000
N1108       N  0.28211274  0.60026149  0.34870624     0.74100
O1109       O  0.32529834  0.43953036  0.42497797    -0.39300
O1110       O  0.29199727  0.46181575  0.47360048    -0.39300
O1111       O  0.27791155  0.63314191  0.36376595    -0.40000
O1112       O  0.29543426  0.59897764  0.31433623    -0.40000
C1113       C  0.77952371  0.47200070  0.24452988    -0.12300
C1114       C  0.78200028  0.50732734  0.26461225     0.04700
C1115       C  0.77003818  0.54148899  0.24472137    -0.07600
C1116       C  0.75863426  0.53973176  0.20585882    -0.08400
C1117       C  0.75754571  0.50464598  0.18555609    -0.02900
C1118       C  0.76816552  0.47037695  0.20567058     0.03900
N1119       N  0.76866547  0.43352132  0.18708303     0.66400
H1120       H  0.78581435  0.44480751  0.25889568     0.15300
H1121       H  0.75024306  0.56643237  0.19156851     0.15000
N1122       N  0.76938357  0.57859175  0.26300788     0.74100
O1123       O  0.79922696  0.42278091  0.17030466    -0.39300
O1124       O  0.74239202  0.40870051  0.19512681    -0.39300
O1125       O  0.78702537  0.60721419  0.24697981    -0.40000
O1126       O  0.74599781  0.58441677  0.29081968    -0.40000
C1127       C  0.68871708  0.51241995  0.45692645    -0.12300
C1128       C  0.66198719  0.53800340  0.44124937     0.04700
C1129       C  0.67175487  0.55883597  0.40678240    -0.07600
C1130       C  0.70631747  0.55146442  0.38703597    -0.08400
C1131       C  0.73103657  0.52238163  0.40001845    -0.02900
C1132       C  0.72323072  0.50453373  0.43668615     0.03900
N1133       N  0.74788548  0.47571659  0.45206311     0.66400
H1134       H  0.68131196  0.49597873  0.48330950     0.15300
H1135       H  0.71256618  0.56688491  0.35985703     0.15000
N1136       N  0.64565815  0.58535854  0.38972348     0.74100
O1137       O  0.77192286  0.48534655  0.47726648    -0.39300
O1138       O  0.73878128  0.44029599  0.44863724    -0.39300
O1139       O  0.65526357  0.62084167  0.38662811    -0.40000
O1140       O  0.61891612  0.57229405  0.36915545    -0.40000
C1141       C  0.86241426  0.95173920  0.79591403    -0.12300
C1142       C  0.87540324  0.98201677  0.77021964     0.04700
C1143       C  0.90758961  0.00453307  0.78029649    -0.07600
C1144       C  0.92335032  0.99954123  0.81697227    -0.08400
C1145       C  0.90759090  0.97255800  0.84471244    -0.02900
C1146       C  0.87901024  0.94627899  0.83266472     0.03900
N1147       N  0.86632188  0.91462961  0.85739699     0.66400
H1148       H  0.83860481  0.93303014  0.78781514     0.15300
H1149       H  0.94671703  0.01900786  0.82471684     0.15000
N1150       N  0.92182328  0.03570178  0.75566190     0.74100
O1151       O  0.83575337  0.91704662  0.87760745    -0.39300
O1152       O  0.88702806  0.88511579  0.86087734    -0.39300
O1153       O  0.90913289  0.06945461  0.76039995    -0.40000
O1154       O  0.95222151  0.03132223  0.73557894    -0.40000
C1155       C  0.90434418  0.95887358  0.18678808    -0.12300
C1156       C  0.93475576  0.98492536  0.17823713     0.04700
C1157       C  0.94441483  0.01334097  0.20559471    -0.07600
C1158       C  0.92095323  0.01820301  0.23889467    -0.08400
C1159       C  0.88832298  0.99432503  0.24568328    -0.02900
C1160       C  0.88165502  0.96268965  0.22061000     0.03900
N1161       N  0.85212774  0.93407829  0.22897964     0.66400
H1162       H  0.89700572  0.93654099  0.16616690     0.15300
H1163       H  0.92739214  0.04161118  0.25857123     0.15000
N1164       N  0.97814908  0.03712883  0.19993298     0.74100
O1165       O  0.82126078  0.93525392  0.21049606    -0.39300
O1166       O  0.86125645  0.90243739  0.24497011    -0.39300
O1167       O  0.97529919  0.07327043  0.19436917    -0.40000
O1168       O  0.01017667  0.02332685  0.20867342    -0.40000
C1169       C  0.20009062  0.47659450  0.75401518    -0.12300
C1170       C  0.19843601  0.51288623  0.73451977     0.04700
C1171       C  0.21209433  0.54606130  0.75438698    -0.07600
C1172       C  0.22358003  0.54258990  0.79316114    -0.08400
C1173       C  0.22296849  0.50654835  0.81320609    -0.02900
C1174       C  0.21129206  0.47318753  0.79273694     0.03900
N1175       N  0.21036700  0.43534963  0.81050699     0.66400
H1176       H  0.19345464  0.44994590  0.73913890     0.15300
H1177       H  0.23330540  0.56865179  0.80756275     0.15000
N1178       N  0.21540174  0.58349790  0.73570240     0.74100
O1179       O  0.17968779  0.42291720  0.82704278    -0.39300
O1180       O  0.23605171  0.41152582  0.80140661    -0.39300
O1181       O  0.19767902  0.61187910  0.74982522    -0.40000
O1182       O  0.23973762  0.58940476  0.70832777    -0.40000
C1183       C  0.26063806  0.52170226  0.56779653    -0.12300
C1184       C  0.25210175  0.49805202  0.60043152     0.04700
C1185       C  0.27567407  0.46600278  0.60873303    -0.07600
C1186       C  0.30826436  0.45955271  0.58526237    -0.08400
C1187       C  0.31854970  0.48498052  0.55448499    -0.02900
C1188       C  0.29442392  0.51644322  0.54565606     0.03900
N1189       N  0.30583647  0.54571786  0.51738459     0.66400
H1190       H  0.24303017  0.54665129  0.56181053     0.15300
H1191       H  0.32738932  0.43632332  0.59304881     0.15000
N1192       N  0.26856103  0.44141483  0.64237733     0.74100
O1193       O  0.28300553  0.55467085  0.49085711    -0.39300
O1194       O  0.33316586  0.56890094  0.52474890    -0.39300
O1195       O  0.23559056  0.42665422  0.64940602    -0.40000
O1196       O  0.29519143  0.43528661  0.66588039    -0.40000
C1197       C  0.79973840  0.47800652  0.76443294    -0.12300
C1198       C  0.78869536  0.50849770  0.73950944     0.04700
C1199       C  0.77020469  0.54080120  0.75689471    -0.07600
C1200       C  0.76249786  0.54108701  0.79705032    -0.08400
C1201       C  0.77235060  0.50998074  0.82112907    -0.02900
C1202       C  0.79218962  0.47864705  0.80452910     0.03900
N1203       N  0.80541134  0.44714901  0.82788386     0.66400
H1204       H  0.81316362  0.45232815  0.75353014     0.15300
H1205       H  0.74758668  0.56561408  0.80927374     0.15000
N1206       N  0.75786283  0.57346783  0.73457448     0.74100
O1207       O  0.78605982  0.41576222  0.82954180    -0.39300
O1208       O  0.84010380  0.44714462  0.83778131    -0.39300
O1209       O  0.72224497  0.57912541  0.73269570    -0.40000
O1210       O  0.78055030  0.60234963  0.73017398    -0.40000
C1211       C  0.70647071  0.45867272  0.59905487    -0.12300
C1212       C  0.71846017  0.49389184  0.61595762     0.04700
C1213       C  0.69165857  0.52351647  0.62086433    -0.07600
C1214       C  0.65367045  0.51745452  0.61040910    -0.08400
C1215       C  0.64152104  0.48334080  0.59182489    -0.02900
C1216       C  0.66831846  0.45353661  0.58623795     0.03900
N1217       N  0.65763581  0.41882199  0.56657298     0.66400
H1218       H  0.72656177  0.43516632  0.59617627     0.15300
H1219       H  0.63381117  0.54095755  0.61494142     0.15000
N1220       N  0.70283566  0.56031074  0.63642210     0.74100
O1221       O  0.64342362  0.39024700  0.58576865    -0.39300
O1222       O  0.65685939  0.41884835  0.52987664    -0.39300
O1223       O  0.72933275  0.58037874  0.61981353    -0.40000
O1224       O  0.68310250  0.57497224  0.66351788    -0.40000
C1225       C  0.96104791  0.27606913  0.29959877    -0.12300
C1226       C  0.99499899  0.28468439  0.31916753     0.04700
C1227       C  0.02533839  0.30432218  0.29860776    -0.07600
C1228       C  0.02175840  0.31346466  0.25909514    -0.08400
C1229       C  0.98806833  0.30399240  0.23898419    -0.02900
C1230       C  0.95702550  0.28592233  0.26042032     0.03900
N1231       N  0.92109470  0.27683345  0.24287904     0.66400
H1232       H  0.93700645  0.26164226  0.31482148     0.15300
H1233       H  0.04599416  0.32811362  0.24500548     0.15000
N1234       N  0.05949970  0.31673024  0.31755982     0.74100
O1235       O  0.91291497  0.24186208  0.23552028    -0.39300
O1236       O  0.89420625  0.30080990  0.24555135    -0.39300
O1237       O  0.06346492  0.35187840  0.32691652    -0.40000
O1238       O  0.08838325  0.29510784  0.31734664    -0.40000
C1239       C  0.95928997  0.27461527  0.70439082    -0.12300
C1240       C  0.99475202  0.27552163  0.68382710     0.04700
C1241       C  0.02804533  0.28665767  0.70393924    -0.07600
C1242       C  0.02507517  0.29703220  0.74295583    -0.08400
C1243       C  0.98923654  0.29936027  0.76285219    -0.02900
C1244       C  0.95629060  0.28565900  0.74340963     0.03900
N1245       N  0.91969097  0.28127023  0.76290028     0.66400
H1246       H  0.93332079  0.26532554  0.69016756     0.15300
H1247       H  0.05175376  0.30272619  0.75738635     0.15000
N1248       N  0.06517468  0.28910660  0.68518402     0.74100
O1249       O  0.89273208  0.30319323  0.75325838    -0.39300
O1250       O  0.91158811  0.24973694  0.78072131    -0.39300
O1251       O  0.07690507  0.32121037  0.67062430    -0.40000
O1252       O  0.08901876  0.26262341  0.69114854    -0.40000
C1253       C  0.83155574  0.41678308  0.40732257    -0.12300
C1254       C  0.84779975  0.44506515  0.38188368     0.04700
C1255       C  0.88802916  0.44560515  0.37494826    -0.07600
C1256       C  0.91117234  0.41859610  0.39412551    -0.08400
C1257       C  0.89475682  0.38960802  0.41885353    -0.02900
C1258       C  0.85446023  0.38877001  0.42517020     0.03900
N1259       N  0.83630779  0.35960592  0.44966246     0.66400
H1260       H  0.80074725  0.41569452  0.41245340     0.15300
H1261       H  0.94197424  0.41938404  0.38855042     0.15000
N1262       N  0.90567727  0.47263966  0.34768521     0.74100
O1263       O  0.82602878  0.36792537  0.48394227    -0.39300
O1264       O  0.82311257  0.32909360  0.43458845    -0.39300
O1265       O  0.92525502  0.50097092  0.35990912    -0.40000
O1266       O  0.90896956  0.46343226  0.31237908    -0.40000
C1267       C  0.83884576  0.40120256  0.63165921    -0.12300
C1268       C  0.84201495  0.43992416  0.61842073     0.04700
C1269       C  0.86854612  0.44938022  0.58789284    -0.07600
C1270       C  0.89205286  0.42069624  0.57245254    -0.08400
C1271       C  0.89003414  0.38216054  0.58655619    -0.02900
C1272       C  0.86232510  0.37240153  0.61617391     0.03900
N1273       N  0.85774122  0.33368733  0.63141343     0.66400
H1274       H  0.81822958  0.39326947  0.65471299     0.15300
H1275       H  0.91245728  0.42910981  0.54938755     0.15000
N1276       N  0.87405468  0.48822052  0.57349646     0.74100
O1277       O  0.87753733  0.32307785  0.65982984    -0.39300
O1278       O  0.82866325  0.31358500  0.62242554    -0.39300
O1279       O  0.90073107  0.50867465  0.58738423    -0.40000
O1280       O  0.86267744  0.49636420  0.53981413    -0.40000
C1281       C  0.12428427  0.39768032  0.57377228    -0.12300
C1282       C  0.08631354  0.39248709  0.58730153     0.04700
C1283       C  0.07147408  0.41700359  0.61612237    -0.07600
C1284       C  0.09547890  0.44525964  0.63221856    -0.08400
C1285       C  0.13370394  0.45043357  0.61884190    -0.02900
C1286       C  0.14787528  0.42694722  0.58852082     0.03900
N1287       N  0.18600116  0.43181927  0.57246806     0.66400
H1288       H  0.13540248  0.37944777  0.55081228     0.15300
H1289       H  0.08412950  0.46354452  0.65500746     0.15000
N1290       N  0.03240769  0.41323107  0.62963275     0.76500
O1291       O  0.19167707  0.45572506  0.54462207    -0.39300
O1292       O  0.20939147  0.40458597  0.57663589    -0.39300
O1293       O  0.02458045  0.39423631  0.66060181    -0.40000
O1294       O  0.00758509  0.43545617  0.61574674    -0.40000
C1295       C  0.12266686  0.46583137  0.41640542    -0.12300
C1296       C  0.15228939  0.45486559  0.39062281     0.04700
C1297       C  0.15858567  0.41471780  0.38582217    -0.07600
C1298       C  0.13298570  0.38700421  0.40289628    -0.08400
C1299       C  0.10122465  0.39789531  0.42622646    -0.02900
C1300       C  0.09755181  0.43800662  0.43443305     0.03900
N1301       N  0.06842510  0.45130287  0.46072173     0.66400
H1302       H  0.11790394  0.49633055  0.42155025     0.15300
H1303       H  0.13824168  0.35658567  0.39762753     0.15000
N1304       N  0.19160567  0.40144541  0.36469748     0.74100
O1305       O  0.07644390  0.45681597  0.49585797    -0.39300
O1306       O  0.03788055  0.46489702  0.44744939    -0.39300
O1307       O  0.22293770  0.39825351  0.38212666    -0.40000
O1308       O  0.18725797  0.38414887  0.33293893    -0.40000
C1309       C  0.10960546  0.06560385  0.60395127    -0.12300
C1310       C  0.12249048  0.07558037  0.64082960     0.04700
C1311       C  0.11975730  0.11436249  0.65283584    -0.07600
C1312       C  0.10271644  0.14198256  0.62872333    -0.08400
C1313       C  0.08797582  0.13182494  0.59238072    -0.02900
C1314       C  0.09239306  0.09311440  0.57973554     0.03900
N1315       N  0.08005355  0.08118779  0.54231839     0.66400
H1316       H  0.11317683  0.03629826  0.59368740     0.15300
H1317       H  0.09995255  0.17133598  0.63926949     0.15000
N1318       N  0.13269934  0.12595072  0.69009941     0.74100
O1319       O  0.10311587  0.08403120  0.51346785    -0.39300
O1320       O  0.04967017  0.06085459  0.53975459    -0.39300
O1321       O  0.16461024  0.14371518  0.69228319    -0.40000
O1322       O  0.10851163  0.12824461  0.71785294    -0.40000
C1323       C  0.92472646  0.08711506  0.60263066    -0.12300
C1324       C  0.91745070  0.12671080  0.60860065     0.04700
C1325       C  0.89359010  0.13625769  0.64116239    -0.07600
C1326       C  0.87532688  0.10684548  0.66389801    -0.08400
C1327       C  0.88102454  0.06736214  0.65673122    -0.02900
C1328       C  0.90754632  0.05766062  0.62661033     0.03900
N1329       N  0.91675662  0.01823285  0.61884111     0.66400
H1330       H  0.94372914  0.07869480  0.57892544     0.15300
H1331       H  0.85640690  0.11510493  0.68776618     0.15000
N1332       N  0.88832297  0.17556617  0.65277440     0.74100
O1333       O  0.90414933  0.00280749  0.58851343    -0.39300
O1334       O  0.94586400  0.00398100  0.63450818    -0.39300
O1335       O  0.85508592  0.18957734  0.65269624    -0.40000
O1336       O  0.91395633  0.19193958  0.67245380    -0.40000
C1337       C  0.87267890  0.12557369  0.40940574    -0.12300
C1338       C  0.91184477  0.13279397  0.40186577     0.04700
C1339       C  0.93014990  0.11349481  0.37095964    -0.07600
C1340       C  0.90907535  0.08759749  0.34809235    -0.08400
C1341       C  0.86977541  0.07961418  0.35578152    -0.02900
C1342       C  0.85167554  0.09890719  0.38741808     0.03900
N1343       N  0.81290779  0.09016054  0.39974109     0.66400
H1344       H  0.85838916  0.14010669  0.43333387     0.15300
H1345       H  0.92380608  0.07360363  0.32418282     0.15000
N1346       N  0.97025255  0.11932751  0.36271787     0.74100
O1347       O  0.80705747  0.06727782  0.42838152    -0.39300
O1348       O  0.78698603  0.11370350  0.39105465    -0.39300
O1349       O  0.99300324  0.09267310  0.37146102    -0.40000
O1350       O  0.98121905  0.14552420  0.33863305    -0.40000
C1351       C  0.13127810  0.11762328  0.34982222    -0.12300
C1352       C  0.11718744  0.07910571  0.35239272     0.04700
C1353       C  0.08707307  0.06998114  0.37944511    -0.07600
C1354       C  0.07211059  0.09900956  0.40313080    -0.08400
C1355       C  0.08542331  0.13777559  0.40013387    -0.02900
C1356       C  0.11590099  0.14682623  0.37325910     0.03900
N1357       N  0.13293194  0.18491624  0.37052065     0.66400
H1358       H  0.15487994  0.12504751  0.32973826     0.15300
H1359       H  0.04931752  0.09084894  0.42386595     0.15000
N1360       N  0.07243308  0.03119806  0.38518592     0.74100
O1361       O  0.16031765  0.19364048  0.39239005    -0.39300
O1362       O  0.12651024  0.20628820  0.34132047    -0.39300
O1363       O  0.07701990  0.01476638  0.41777800    -0.40000
O1364       O  0.04527507  0.01949659  0.36438779    -0.40000
C1365       C  0.02291787  0.74489758  0.29467543    -0.12300
C1366       C  0.98842138  0.74300211  0.31687584     0.04700
C1367       C  0.95487422  0.72917596  0.29884539    -0.07600
C1368       C  0.95667200  0.71640697  0.26062650    -0.08400
C1369       C  0.99158092  0.71523550  0.23915630    -0.02900
C1370       C  0.02464443  0.73203136  0.25611217     0.03900
N1371       N  0.05980254  0.73798587  0.23427729     0.66400
H1372       H  0.04888365  0.75669710  0.30714039     0.15300
H1373       H  0.92967592  0.70826269  0.24796987     0.15000
N1374       N  0.91870663  0.72583855  0.31921926     0.74100
O1375       O  0.06459736  0.76877460  0.21418883    -0.39300
O1376       O  0.08872674  0.71827972  0.24280415    -0.39300
O1377       O  0.89357993  0.75113138  0.31359089    -0.40000
O1378       O  0.90863854  0.69336974  0.33400574    -0.40000
C1379       C  0.95671327  0.73381661  0.70285681    -0.12300
C1380       C  0.98787778  0.72552722  0.67803473     0.04700
C1381       C  0.01805481  0.70318886  0.69246790    -0.07600
C1382       C  0.01849348  0.69272467  0.73170986    -0.08400
C1383       C  0.98850313  0.70285512  0.75745974    -0.02900
C1384       C  0.95660634  0.72273537  0.74212294     0.03900
N1385       N  0.92398108  0.73242683  0.76598923     0.66400
H1386       H  0.93264001  0.74996246  0.69204398     0.15300
H1387       H  0.04349504  0.67775483  0.74143143     0.15000
N1388       N  0.04759868  0.68894080  0.66732161     0.74100
O1389       O  0.92535191  0.76177820  0.78750668    -0.39300
O1390       O  0.89211736  0.71526475  0.76105009    -0.39300
O1391       O  0.08149789  0.70216887  0.66998762    -0.40000
O1392       O  0.04191036  0.65702846  0.65063201    -0.40000
C1393       C  0.11970375  0.64792686  0.39101117    -0.12300
C1394       C  0.08258044  0.63683552  0.40428982     0.04700
C1395       C  0.06998246  0.59786984  0.39935494    -0.07600
C1396       C  0.09476966  0.57100777  0.38245722    -0.08400
C1397       C  0.13196099  0.58225017  0.37024748    -0.02900
C1398       C  0.14426170  0.62106896  0.37406112     0.03900
N1399       N  0.18217745  0.63343577  0.36229571     0.66400
H1400       H  0.13027706  0.67745193  0.39462578     0.15300
H1401       H  0.08483685  0.54129352  0.37865909     0.15000
N1402       N  0.03205976  0.58509465  0.41074532     0.74100
O1403       O  0.18899116  0.64296293  0.32717945    -0.39300
O1404       O  0.20508114  0.64447581  0.38796496    -0.39300
O1405       O  0.00518856  0.58842761  0.38697053    -0.40000
O1406       O  0.02742658  0.56294417  0.44013586    -0.40000
C1407       C  0.11859784  0.64441466  0.60325141    -0.12300
C1408       C  0.08852255  0.63115382  0.57982226     0.04700
C1409       C  0.08433006  0.59055114  0.57431441    -0.07600
C1410       C  0.10987124  0.56488804  0.59183082    -0.08400
C1411       C  0.13947509  0.57851366  0.61542761    -0.02900
C1412       C  0.14379938  0.61878022  0.62089083     0.03900
N1413       N  0.17442607  0.63436338  0.64322520     0.66400
H1414       H  0.12285243  0.67514087  0.60812682     0.15300
H1415       H  0.10569085  0.53391625  0.58788818     0.15000
N1416       N  0.05395601  0.57454132  0.55193062     0.74100
O1417       O  0.20733468  0.63911932  0.62744693    -0.39300
O1418       O  0.16671000  0.65129038  0.67469140    -0.39300
O1419       O  0.06148172  0.56187074  0.51840741    -0.40000
O1420       O  0.02246359  0.56492801  0.56871034    -0.40000
C1421       C  0.85900771  0.61275000  0.56108163    -0.12300
C1422       C  0.89195905  0.62450671  0.58083528     0.04700
C1423       C  0.90062364  0.60635118  0.61620028    -0.07600
C1424       C  0.87535172  0.57816643  0.63229475    -0.08400
C1425       C  0.84094442  0.56734737  0.61384613    -0.02900
C1426       C  0.83365350  0.58405675  0.57691898     0.03900
N1427       N  0.80042279  0.57355320  0.55548784     0.66400
H1428       H  0.85271847  0.62625150  0.53329766     0.15300
H1429       H  0.88306474  0.56441684  0.65949992     0.15000
N1430       N  0.93488468  0.61636790  0.63623166     0.74100
O1431       O  0.77351502  0.59746521  0.55329451    -0.39300
O1432       O  0.80369306  0.54848451  0.52928074    -0.39300
O1433       O  0.93291098  0.63798572  0.66550907    -0.40000
O1434       O  0.96513445  0.59768042  0.62962418    -0.40000
C1435       C  0.87305967  0.56276348  0.40560643    -0.12300
C1436       C  0.84573243  0.57419799  0.37880108     0.04700
C1437       C  0.84007107  0.61406867  0.37183044    -0.07600
C1438       C  0.86277350  0.64156813  0.39059942    -0.08400
C1439       C  0.89150489  0.63030604  0.41633836    -0.02900
C1440       C  0.89562014  0.59010858  0.42469720     0.03900
N1441       N  0.92099345  0.57621759  0.45368966     0.66400
H1442       H  0.87676544  0.53219080  0.41219795     0.15300
H1443       H  0.85726672  0.67202422  0.38525300     0.15000
N1444       N  0.80995557  0.62728698  0.34770526     0.74100
O1445       O  0.91067652  0.57780906  0.48906840    -0.39300
O1446       O  0.94722707  0.55325765  0.44396210    -0.39300
O1447       O  0.77649890  0.63013693  0.36224824    -0.40000
O1448       O  0.81851486  0.64515573  0.31625685    -0.40000
C1449       C  0.05871866  0.90114399  0.35979157    -0.12300
C1450       C  0.07037258  0.89670180  0.39848964     0.04700
C1451       C  0.09967431  0.92121550  0.41215898    -0.07600
C1452       C  0.11831048  0.94804175  0.38666875    -0.08400
C1453       C  0.10712845  0.95240186  0.34771073    -0.02900
C1454       C  0.07628241  0.92931063  0.33464451     0.03900
N1455       N  0.06342141  0.93307426  0.29565397     0.66400
H1456       H  0.03590515  0.88261225  0.34905426     0.15300
H1457       H  0.14167180  0.96584456  0.39744881     0.15000
N1458       N  0.11118124  0.91874902  0.45173728     0.74100
O1459       O  0.07445125  0.90917865  0.27045439    -0.39300
O1460       O  0.03523151  0.95440956  0.28866435    -0.39300
O1461       O  0.13315067  0.89215539  0.46253938    -0.40000
O1462       O  0.09685815  0.94121904  0.47658824    -0.40000
C1463       C  0.88806827  0.92365592  0.42558659    -0.12300
C1464       C  0.90309647  0.89140166  0.40630403     0.04700
C1465       C  0.90010590  0.88896667  0.36552056    -0.07600
C1466       C  0.88105039  0.91784167  0.34510090    -0.08400
C1467       C  0.86518422  0.94924921  0.36453069    -0.02900
C1468       C  0.86917016  0.95256125  0.40486498     0.03900
N1469       N  0.85462067  0.98537155  0.42488989     0.66400
H1470       H  0.89056422  0.92614543  0.45683358     0.15300
H1471       H  0.87942900  0.91627744  0.31380997     0.15000
N1472       N  0.91836446  0.85885164  0.34415071     0.74100
O1473       O  0.81918444  0.98707609  0.43317047    -0.39300
O1474       O  0.87660238  0.01401052  0.43142307    -0.39300
O1475       O  0.89805184  0.83493817  0.32575358    -0.40000
O1476       O  0.95397335  0.86165905  0.33647091    -0.40000
C1477       C  0.87026174  0.90427063  0.58478369    -0.12300
C1478       C  0.90041778  0.88332055  0.60058088     0.04700
C1479       C  0.91065612  0.88947709  0.63939218    -0.07600
C1480       C  0.89145764  0.91727619  0.66139467    -0.08400
C1481       C  0.86112396  0.93835168  0.64582152    -0.02900
C1482       C  0.84985618  0.93092378  0.60728911     0.03900
N1483       N  0.81848259  0.95060669  0.59017019     0.66400
H1484       H  0.86209467  0.89942017  0.55497210     0.15300
H1485       H  0.90011201  0.92211585  0.69104827     0.15000
N1486       N  0.94099623  0.86828051  0.65660287     0.74100
O1487       O  0.82491649  0.98155623  0.57075261    -0.39300
O1488       O  0.78694864  0.93248288  0.58633041    -0.39300
O1489       O  0.97304129  0.88500474  0.66170170    -0.40000
O1490       O  0.93335913  0.83631813  0.67383907    -0.40000
C1491       C  0.09703018  0.87773728  0.62852601    -0.12300
C1492       C  0.07137424  0.89004742  0.59998636     0.04700
C1493       C  0.06303197  0.93019057  0.59770965    -0.07600
C1494       C  0.08183020  0.95662978  0.62184534    -0.08400
C1495       C  0.10859066  0.94440551  0.64923979    -0.02900
C1496       C  0.11491181  0.90409740  0.65337452     0.03900
N1497       N  0.13679939  0.88886921  0.68459417     0.66400
H1498       H  0.10285392  0.84712630  0.63239706     0.15300
H1499       H  0.07507589  0.98701606  0.61897022     0.15000
N1500       N  0.03463194  0.94475828  0.57217729     0.74100
O1501       O  0.11955446  0.87949829  0.71615062    -0.39300
O1502       O  0.16918230  0.87448743  0.67714585    -0.39300
O1503       O  0.00022937  0.94685387  0.58433576    -0.40000
O1504       O  0.04508010  0.96307243  0.54152286    -0.40000
C1505       C  0.18670322  0.81018757  0.47597798    -0.12300
C1506       C  0.17019239  0.77811064  0.49623339     0.04700
C1507       C  0.19330201  0.75607698  0.52083280    -0.07600
C1508       C  0.23192810  0.76644735  0.52508800    -0.08400
C1509       C  0.24953040  0.79762159  0.50365168    -0.02900
C1510       C  0.22548907  0.82121230  0.48065217     0.03900
N1511       N  0.23888569  0.85766608  0.46408477     0.66400
H1512       H  0.16870537  0.82815143  0.45818823     0.15300
H1513       H  0.24788358  0.74966660  0.54582245     0.15000
N1514       N  0.17825685  0.72225137  0.54098822     0.74100
O1515       O  0.23049162  0.86697270  0.42969098    -0.39300
O1516       O  0.25498490  0.88255297  0.48519807    -0.39300
O1517       O  0.17837436  0.68997495  0.52402623    -0.40000
O1518       O  0.17362694  0.72291641  0.57747920    -0.40000
C1519       C  0.36360763  0.71105169  0.55879806    -0.12300
C1520       C  0.37762574  0.73871262  0.53088439     0.04700
C1521       C  0.41020985  0.72975309  0.50821619    -0.07600
C1522       C  0.42529125  0.69237588  0.51051625    -0.08400
C1523       C  0.40847287  0.66296738  0.53503358    -0.02900
C1524       C  0.37883928  0.67347568  0.56124658     0.03900
N1525       N  0.36215715  0.64597885  0.58857915     0.66400
H1526       H  0.33912414  0.71796594  0.57733880     0.15300
H1527       H  0.44895351  0.68560406  0.49086308     0.15000
N1528       N  0.42532118  0.75645413  0.47924383     0.74100
O1529       O  0.37845918  0.64023541  0.62051134    -0.39300
O1530       O  0.32754135  0.63518759  0.58518452    -0.39300
O1531       O  0.45508498  0.77660602  0.48578124    -0.40000
O1532       O  0.41093110  0.75741520  0.44592265    -0.40000
C1533       C  0.24410131  0.26108814  0.50333840    -0.12300
C1534       C  0.25453000  0.22222778  0.49552378     0.04700
C1535       C  0.22410666  0.19502509  0.48924300    -0.07600
C1536       C  0.18578258  0.20708344  0.48931442    -0.08400
C1537       C  0.17629101  0.24566120  0.49659486    -0.02900
C1538       C  0.20570298  0.27277812  0.50364757     0.03900
N1539       N  0.19707953  0.31245929  0.51102291     0.66400
H1540       H  0.26493422  0.28316099  0.51041415     0.15300
H1541       H  0.16306254  0.18581939  0.48440019     0.15000
N1542       N  0.23124487  0.15476407  0.48330917     0.74100
O1543       O  0.19487093  0.32397043  0.54565910    -0.39300
O1544       O  0.19907670  0.33709509  0.48342657    -0.39300
O1545       O  0.23203442  0.13214926  0.51252030    -0.40000
O1546       O  0.22532548  0.14062790  0.45027182    -0.40000
C1547       C  0.40978445  0.27806290  0.46681529    -0.12300
C1548       C  0.39681854  0.25871019  0.50076239     0.04700
C1549       C  0.40906241  0.27186742  0.53713028    -0.07600
C1550       C  0.43025492  0.30694550  0.53940592    -0.08400
C1551       C  0.43984348  0.32858142  0.50548701    -0.02900
C1552       C  0.43169749  0.31242684  0.46883989     0.03900
N1553       N  0.44411454  0.33156919  0.43336883     0.66400
H1554       H  0.40099336  0.26768625  0.43869316     0.15300
H1555       H  0.43669979  0.31858559  0.56768072     0.15000
N1556       N  0.39799753  0.25107476  0.57201272     0.74100
O1557       O  0.47665497  0.32394150  0.41872061    -0.39300
O1558       O  0.41986835  0.34857168  0.41271397    -0.39300
O1559       O  0.41712801  0.22216333  0.58263243    -0.40000
O1560       O  0.36634028  0.25797616  0.58894070    -0.40000
C1561       C  0.69307430  0.27221324  0.96265558    -0.12300
C1562       C  0.69448587  0.24852775  0.99622049     0.04700
C1563       C  0.70848935  0.26527789  0.03072755    -0.07600
C1564       C  0.71780942  0.30496894  0.03146702    -0.08400
C1565       C  0.71501164  0.32856500  0.99806601    -0.02900
C1566       C  0.70245450  0.31154330  0.96327374     0.03900
N1567       N  0.69871073  0.33342182  0.92791626     0.66400
H1568       H  0.68622300  0.26051412  0.93467344     0.15300
H1569       H  0.72823288  0.31709852  0.05824530     0.15000
N1570       N  0.71504711  0.24234978  0.06488993     0.74100
O1571       O  0.72552879  0.33292204  0.90262292    -0.39300
O1572       O  0.66564545  0.34294639  0.91757937    -0.39300
O1573       O  0.74690934  0.22590376  0.06839759    -0.40000
O1574       O  0.69373469  0.24656841  0.09470097    -0.40000
C1575       C  0.80328950  0.07737355  0.00449368    -0.12300
C1576       C  0.83094047  0.08971971  0.97579563     0.04700
C1577       C  0.81956566  0.11624700  0.94682422    -0.07600
C1578       C  0.78255708  0.13189980  0.94892869    -0.08400
C1579       C  0.75611343  0.12106184  0.97902846    -0.02900
C1580       C  0.76634155  0.09255423  0.00620473     0.03900
N1581       N  0.74080976  0.08104735  0.03767435     0.66400
H1582       H  0.81053626  0.05616910  0.02664533     0.15300
H1583       H  0.77502179  0.15412599  0.92792547     0.15000
N1584       N  0.84578882  0.12987555  0.91687708     0.74100
O1585       O  0.72008012  0.05080290  0.03464837    -0.39300
O1586       O  0.74529142  0.09557530  0.07079048    -0.39300
O1587       O  0.84281727  0.11671914  0.88299175    -0.40000
O1588       O  0.86437249  0.16120205  0.92164252    -0.40000
C1589       C  0.25840990  0.30090178  0.96848860    -0.12300
C1590       C  0.25612721  0.32257307  0.00264783     0.04700
C1591       C  0.26661445  0.30429478  0.03802908    -0.07600
C1592       C  0.27968339  0.26599611  0.03832172    -0.08400
C1593       C  0.28252812  0.24423699  0.00404113    -0.02900
C1594       C  0.27063150  0.26228296  0.96884715     0.03900
N1595       N  0.27028424  0.24186900  0.93290593     0.66400
H1596       H  0.25031366  0.31383846  0.94100438     0.15300
H1597       H  0.28613521  0.25331412  0.06623958     0.15000
N1598       N  0.26419605  0.32400396  0.07429790     0.74100
O1599       O  0.24056753  0.22261074  0.92420624    -0.39300
O1600       O  0.29448526  0.25137094  0.90632769    -0.39300
O1601       O  0.23317324  0.32298769  0.09410701    -0.40000
O1602       O  0.29371724  0.34024410  0.08777896    -0.40000
C1603       C  0.16981537  0.08732071  0.02222704    -0.12300
C1604       C  0.16077819  0.06996386  0.98659204     0.04700
C1605       C  0.18949251  0.06976066  0.95678325    -0.07600
C1606       C  0.22531441  0.08864533  0.96250409    -0.08400
C1607       C  0.23276408  0.10793395  0.99739057    -0.02900
C1608       C  0.20484321  0.10658653  0.02762929     0.03900
N1609       N  0.21024720  0.12783951  0.06271185     0.66400
H1610       H  0.14873573  0.08736625  0.04598104     0.15300
H1611       H  0.24627939  0.09059414  0.93867876     0.15000
N1612       N  0.18164862  0.05424978  0.91946829     0.74100
O1613       O  0.18784962  0.15496200  0.07137279    -0.39300
O1614       O  0.23883135  0.12153538  0.08362353    -0.39300
O1615       O  0.17654839  0.07734181  0.89128265    -0.40000
O1616       O  0.18982448  0.01942295  0.91264372    -0.40000
C1617       C  0.74885314  0.79926819  0.53781311    -0.12300
C1618       C  0.72655988  0.79536576  0.50426913     0.04700
C1619       C  0.74496324  0.77969032  0.47078159    -0.07600
C1620       C  0.78442571  0.77128043  0.47082998    -0.08400
C1621       C  0.80663729  0.77675050  0.50403967    -0.02900
C1622       C  0.78799402  0.79062521  0.53793555     0.03900
N1623       N  0.80841799  0.79742242  0.57284546     0.66400
H1624       H  0.73657243  0.80834728  0.56511678     0.15300
H1625       H  0.79762046  0.75990649  0.44460769     0.15000
N1626       N  0.72404789  0.77148402  0.43643838     0.74100
O1627       O  0.82041855  0.83135729  0.57981697    -0.39300
O1628       O  0.80616407  0.77251699  0.60017536    -0.39300
O1629       O  0.72969742  0.79266830  0.40646364    -0.40000
O1630       O  0.70866395  0.73825966  0.43289676    -0.40000
C1631       C  0.58594981  0.73266453  0.45816452    -0.12300
C1632       C  0.58825864  0.74952237  0.49514667     0.04700
C1633       C  0.56410809  0.73484509  0.52568840    -0.07600
C1634       C  0.54079553  0.70187364  0.51971457    -0.08400
C1635       C  0.54099564  0.68305687  0.48376228    -0.02900
C1636       C  0.56217708  0.69983040  0.45224614     0.03900
N1637       N  0.56223301  0.68183751  0.41507440     0.66400
H1638       H  0.60396122  0.74401578  0.43428542     0.15300
H1639       H  0.52483467  0.68893571  0.54428707     0.15000
N1640       N  0.56534126  0.75071094  0.56384629     0.74100
O1641       O  0.53538631  0.68862418  0.39203889    -0.39300
O1642       O  0.58406767  0.65370193  0.40868069    -0.39300
O1643       O  0.53467259  0.76234251  0.57975688    -0.40000
O1644       O  0.59397976  0.74423846  0.58467698    -0.40000
C1645       C  0.73130471  0.71459448  0.97127886    -0.12300
C1646       C  0.71792416  0.69033211  0.00202306     0.04700
C1647       C  0.69237750  0.70555184  0.03000590    -0.07600
C1648       C  0.68097278  0.74408417  0.02702292    -0.08400
C1649       C  0.69453082  0.76906086  0.99657427    -0.02900
C1650       C  0.72027379  0.75347437  0.96843711     0.03900
N1651       N  0.73626657  0.77682457  0.93708158     0.66400
H1652       H  0.75073825  0.70341262  0.94927561     0.15300
H1653       H  0.66192832  0.75358663  0.04983721     0.15000
N1654       N  0.67562986  0.68179218  0.06059177     0.74100
O1655       O  0.76946940  0.79167868  0.94027381    -0.39300
O1656       O  0.72257460  0.77342106  0.90360990    -0.39300
O1657       O  0.69008244  0.68253276  0.09390855    -0.40000
O1658       O  0.64150047  0.66956871  0.05731420    -0.40000
C1659       C  0.80628467  0.91920681  0.04999739    -0.12300
C1660       C  0.81688073  0.94761593  0.02202072     0.04700
C1661       C  0.79161622  0.95589129  0.99147074    -0.07600
C1662       C  0.75755013  0.93390705  0.98815342    -0.08400
C1663       C  0.74885684  0.90299241  0.01396355    -0.02900
C1664       C  0.77255425  0.89686465  0.04630705     0.03900
N1665       N  0.76316140  0.86777566  0.07534283     0.66400
H1666       H  0.82544976  0.91270919  0.07355326     0.15300
H1667       H  0.73935040  0.93907370  0.96350403     0.15000
N1668       N  0.80102154  0.98482249  0.96225085     0.74100
O1669       O  0.78129686  0.83637019  0.07543660    -0.39300
O1670       O  0.74514459  0.87745313  0.10586480    -0.39300
O1671       O  0.82765173  0.97872996  0.93767188    -0.40000
O1672       O  0.77712257  0.01097454  0.95513990    -0.40000
C1673       C  0.30153115  0.74056255  0.02607136    -0.12300
C1674       C  0.28704108  0.76747174  0.99913396     0.04700
C1675       C  0.26439428  0.75274019  0.96846399    -0.07600
C1676       C  0.25535006  0.71288447  0.96684736    -0.08400
C1677       C  0.26860871  0.68685913  0.99496052    -0.02900
C1678       C  0.29318802  0.70089092  0.02379482     0.03900
N1679       N  0.31167969  0.67495927  0.04996975     0.66400
H1680       H  0.31941512  0.74926370  0.04959125     0.15300
H1681       H  0.23727906  0.70238015  0.94384110     0.15000
N1682       N  0.25090365  0.77766017  0.93818243     0.74100
O1683       O  0.34216535  0.65870652  0.03889488    -0.39300
O1684       O  0.30289349  0.67536757  0.08578918    -0.39300
O1685       O  0.26541268  0.77535827  0.90430512    -0.40000
O1686       O  0.21994146  0.79562980  0.94310592    -0.40000
C1687       C  0.19447175  0.87624657  0.05087777    -0.12300
C1688       C  0.22290434  0.89367014  0.02567062     0.04700
C1689       C  0.21395447  0.92911962  0.00709982    -0.07600
C1690       C  0.17668428  0.94367768  0.01070324    -0.08400
C1691       C  0.14712792  0.92365577  0.03191654    -0.02900
C1692       C  0.15681538  0.89047218  0.05366077     0.03900
N1693       N  0.12809096  0.86831364  0.07499739     0.66400
H1694       H  0.20069596  0.84972079  0.06669250     0.15300
H1695       H  0.17025036  0.97008053  0.99469898     0.15000
N1696       N  0.24058148  0.94899102  0.98120520     0.74100
O1697       O  0.10903624  0.84265011  0.05757780    -0.39300
O1698       O  0.12858872  0.86745711  0.11169747    -0.39300
O1699       O  0.23370071  0.94936151  0.94532461    -0.40000
O1700       O  0.26174818  0.97561286  0.99449637    -0.40000
C1701       C  0.25521918  0.97542004  0.30605166    -0.12300
C1702       C  0.23562190  0.01054875  0.30032364     0.04700
C1703       C  0.25738652  0.04327009  0.28605734    -0.07600
C1704       C  0.29634804  0.03979996  0.27626764    -0.08400
C1705       C  0.31535822  0.00444213  0.28073194    -0.02900
C1706       C  0.29448539  0.97227363  0.29696250     0.03900
N1707       N  0.31267565  0.93630350  0.30539754     0.66400
H1708       H  0.24064269  0.94935477  0.31662281     0.15300
H1709       H  0.31164853  0.06527775  0.26458150     0.15000
N1710       N  0.24028936  0.08033935  0.28032029     0.74100
O1711       O  0.32519862  0.93015490  0.33905382    -0.39300
O1712       O  0.30888740  0.90822959  0.28251643    -0.39300
O1713       O  0.24548644  0.10635420  0.30524873    -0.40000
O1714       O  0.22991250  0.09017803  0.24670217    -0.40000
C1715       C  0.69872983  0.04073522  0.26233297    -0.12300
C1716       C  0.67540410  0.00765112  0.27037318     0.04700
C1717       C  0.69157276  0.97618788  0.29051911    -0.07600
C1718       C  0.72989227  0.97794748  0.30167388    -0.08400
C1719       C  0.75340138  0.01129157  0.29466884    -0.02900
C1720       C  0.73731301  0.04271355  0.27362904     0.03900
N1721       N  0.75946878  0.07708272  0.26356835     0.66400
H1722       H  0.68703247  0.06537647  0.24698028     0.15300
H1723       H  0.74070839  0.95213488  0.31531500     0.15000
N1724       N  0.66886439  0.94283564  0.30213551     0.74100
O1725       O  0.78570179  0.07593977  0.23764266    -0.39300
O1726       O  0.74876905  0.10960632  0.27586966    -0.39300
O1727       O  0.67039456  0.91223235  0.28246397    -0.40000
O1728       O  0.65083861  0.94257288  0.33441513    -0.40000
C1729       C  0.40161479  0.87933306  0.45486211    -0.12300
C1730       C  0.37669932  0.84942617  0.44281936     0.04700
C1731       C  0.37220621  0.84435292  0.40242247    -0.07600
C1732       C  0.39038266  0.87016354  0.37556941    -0.08400
C1733       C  0.41406036  0.90127637  0.38741737    -0.02900
C1734       C  0.42036899  0.90492391  0.42787097     0.03900
N1735       N  0.44562945  0.93427423  0.44234903     0.66400
H1736       H  0.40581788  0.88374056  0.48562104     0.15300
H1737       H  0.38582926  0.86539124  0.34492479     0.15000
N1738       N  0.35040148  0.81233856  0.38778391     0.74100
O1739       O  0.43170573  0.96439126  0.45717901    -0.39300
O1740       O  0.48029502  0.92628464  0.44817803    -0.39300
O1741       O  0.31940227  0.81881633  0.37071018    -0.40000
O1742       O  0.36689817  0.78051389  0.38217713    -0.40000
C1743       C  0.58211262  0.92029315  0.41538425    -0.12300
C1744       C  0.57996976  0.90517012  0.37784012     0.04700
C1745       C  0.59660751  0.86860661  0.37038091    -0.07600
C1746       C  0.61539625  0.84882395  0.40015496    -0.08400
C1747       C  0.61722385  0.86427371  0.43750661    -0.02900
C1748       C  0.60022267  0.90022185  0.44505320     0.03900
N1749       N  0.60279239  0.91808537  0.48206765     0.66400
H1750       H  0.57014917  0.94836753  0.42191152     0.15300
H1751       H  0.62760256  0.82066925  0.39441268     0.15000
N1752       N  0.59335967  0.85027122  0.33351882     0.74100
O1753       O  0.62674641  0.94571002  0.48554068    -0.39300
O1754       O  0.57399062  0.91599700  0.50505951    -0.39300
O1755       O  0.62297899  0.84675919  0.31206142    -0.40000
O1756       O  0.56368631  0.83003436  0.32679751    -0.40000
C1757       C  0.37086812  0.09138845  0.39165417    -0.12300
C1758       C  0.40792547  0.10264619  0.37832945     0.04700
C1759       C  0.42300879  0.13921592  0.38867958    -0.07600
C1760       C  0.40233898  0.16250286  0.41448108    -0.08400
C1761       C  0.36582180  0.15080209  0.42896415    -0.02900
C1762       C  0.34954957  0.11523849  0.41665023     0.03900
N1763       N  0.31167250  0.10286237  0.42924171     0.66400
H1764       H  0.35837647  0.06403875  0.38242392     0.15300
H1765       H  0.41473664  0.19015859  0.42296137     0.15000
N1766       N  0.45853917  0.15377410  0.37198041     0.74100
O1767       O  0.28614675  0.09680494  0.40445023    -0.39300
O1768       O  0.30357598  0.09781319  0.46497072    -0.39300
O1769       O  0.45801514  0.17683127  0.34308461    -0.40000
O1770       O  0.48902467  0.15060235  0.39081195    -0.40000
C1771       C  0.51815213  0.24277611  0.19067087    -0.12300
C1772       C  0.48500393  0.26336900  0.20174326     0.04700
C1773       C  0.45597670  0.24306651  0.22407886    -0.07600
C1774       C  0.46140697  0.20475353  0.23604356    -0.08400
C1775       C  0.49478003  0.18492014  0.22572852    -0.02900
C1776       C  0.52338506  0.20430560  0.20269551     0.03900
N1777       N  0.55777924  0.18537173  0.19061759     0.66400
H1778       H  0.54081829  0.25564372  0.17270139     0.15300
H1779       H  0.43883537  0.19031010  0.25346603     0.15000
N1780       N  0.42110443  0.26107369  0.23629383     0.74100
O1781       O  0.58752416  0.18911044  0.21063684    -0.39300
O1782       O  0.56080692  0.17275197  0.15642222    -0.39300
O1783       O  0.39268371  0.25988981  0.21418542    -0.40000
O1784       O  0.41516545  0.26632453  0.27218106    -0.40000
C1785       C  0.45886864  0.80087586  0.23622076    -0.12300
C1786       C  0.49170679  0.82398031  0.22731289     0.04700
C1787       C  0.52184229  0.80772627  0.20520780    -0.07600
C1788       C  0.51876978  0.76950663  0.19271711    -0.08400
C1789       C  0.48588573  0.74601954  0.20116470    -0.02900
C1790       C  0.45586005  0.76231700  0.22394253     0.03900
N1791       N  0.42267140  0.73982482  0.23631950     0.66400
H1792       H  0.43540206  0.81257250  0.25341488     0.15300
H1793       H  0.54375915  0.75850305  0.17787794     0.15000
N1794       N  0.55585318  0.82961409  0.19438940     0.74100
O1795       O  0.42280235  0.72209793  0.26873493    -0.39300
O1796       O  0.39091343  0.74627601  0.22071582    -0.39300
O1797       O  0.58530624  0.82669968  0.21488759    -0.40000
O1798       O  0.55937487  0.84337325  0.16024209    -0.40000
C1799       C  0.65261637  0.12282252  0.09243887    -0.12300
C1800       C  0.63910507  0.12309685  0.05443719     0.04700
C1801       C  0.60293465  0.10587472  0.04724345    -0.07600
C1802       C  0.58118764  0.08862824  0.07790980    -0.08400
C1803       C  0.59444954  0.08846260  0.11621661    -0.02900
C1804       C  0.63099616  0.10562695  0.12317754     0.03900
N1805       N  0.64704446  0.10560132  0.16104856     0.66400
H1806       H  0.68010973  0.13657009  0.09840131     0.15300
H1807       H  0.55313626  0.07632074  0.07168366     0.15000
N1808       N  0.58617701  0.10850492  0.00985212     0.74100
O1809       O  0.66704947  0.07730561  0.17160091    -0.39300
O1810       O  0.64885970  0.13691068  0.17961171    -0.39300
O1811       O  0.55997688  0.13278371  0.00469154    -0.40000
O1812       O  0.58873208  0.08000080  0.98734373    -0.40000
C1813       C  0.56871288  0.90222666  0.08865265    -0.12300
C1814       C  0.58844466  0.92073248  0.11854862     0.04700
C1815       C  0.62898912  0.92177836  0.11771095    -0.07600
C1816       C  0.64900204  0.90463964  0.08697149    -0.08400
C1817       C  0.62925825  0.88518503  0.05788840    -0.02900
C1818       C  0.58883882  0.88366720  0.05882563     0.03900
N1819       N  0.56794712  0.86334307  0.02988422     0.66400
H1820       H  0.53754111  0.90112269  0.08917590     0.15300
H1821       H  0.68010600  0.90614494  0.08598984     0.15000
N1822       N  0.65016852  0.94115354  0.14707849     0.74100
O1823       O  0.56160113  0.82727763  0.03408998    -0.39300
O1824       O  0.54903996  0.88229804  0.00540966    -0.39300
O1825       O  0.66641080  0.92134767  0.17291892    -0.40000
O1826       O  0.65912065  0.97667052  0.14253247    -0.40000
C1827       C  0.35219117  0.86515533  0.10544269    -0.12300
C1828       C  0.34944650  0.88341683  0.06863954     0.04700
C1829       C  0.37254139  0.91711498  0.06066470    -0.07600
C1830       C  0.39615549  0.93208713  0.08949279    -0.08400
C1831       C  0.39843687  0.91407517  0.12629352    -0.02900
C1832       C  0.37688476  0.87947256  0.13369794     0.03900
N1833       N  0.38145541  0.85705412  0.16858740     0.66400
H1834       H  0.33527759  0.83911824  0.11245314     0.15300
H1835       H  0.41279051  0.95840251  0.08279946     0.15000
N1836       N  0.37435173  0.93582223  0.02322177     0.74100
O1837       O  0.35681020  0.85927840  0.19595124    -0.39300
O1838       O  0.40414678  0.82888114  0.16816404    -0.39300
O1839       O  0.35451468  0.96564299  0.01791224    -0.40000
O1840       O  0.40433956  0.93201470  0.00238632    -0.40000
C1841       C  0.37460793  0.14767113  0.08894934    -0.12300
C1842       C  0.34521128  0.12579094  0.07130803     0.04700
C1843       C  0.34206499  0.08545385  0.08076590    -0.07600
C1844       C  0.36815776  0.06840761  0.10625825    -0.08400
C1845       C  0.39686431  0.09061607  0.12381772    -0.02900
C1846       C  0.39973051  0.13066814  0.11532883     0.03900
N1847       N  0.42828960  0.15448088  0.13301940     0.66400
H1848       H  0.37885481  0.17822380  0.08184589     0.15300
H1849       H  0.36513901  0.03767508  0.11339315     0.15000
N1850       N  0.31169207  0.06136893  0.06663995     0.74100
O1851       O  0.46035286  0.16035758  0.11578681    -0.39300
O1852       O  0.41874331  0.17570485  0.16110559    -0.39300
O1853       O  0.31963473  0.03644977  0.04129004    -0.40000
O1854       O  0.28187919  0.05600669  0.08778745    -0.40000
C1855       C  0.75549423  0.20905309  0.53264050    -0.12300
C1856       C  0.73525025  0.21430851  0.49794868     0.04700
C1857       C  0.75593843  0.23055251  0.46528282    -0.07600
C1858       C  0.79506016  0.24032433  0.46788618    -0.08400
C1859       C  0.81493357  0.23516728  0.50264839    -0.02900
C1860       C  0.79448690  0.21906881  0.53519793     0.03900
N1861       N  0.81285631  0.21139557  0.57110423     0.66400
H1862       H  0.74169580  0.19798083  0.55895607     0.15300
H1863       H  0.80982917  0.25237324  0.44222758     0.15000
N1864       N  0.73748109  0.23885516  0.42942637     0.74100
O1865       O  0.82514985  0.17773526  0.57770187    -0.39300
O1866       O  0.80758008  0.23406778  0.59915234    -0.39300
O1867       O  0.72868330  0.27347328  0.42162324    -0.40000
O1868       O  0.74034275  0.21503979  0.40200790    -0.40000
C1869       C  0.63670158  0.14757083  0.39480295    -0.12300
C1870       C  0.61931010  0.15135146  0.43189610     0.04700
C1871       C  0.58444986  0.13021751  0.44013350    -0.07600
C1872       C  0.56849710  0.10642865  0.41186467    -0.08400
C1873       C  0.58583687  0.10279750  0.37498023    -0.02900
C1874       C  0.62055838  0.12363910  0.36659564     0.03900
N1875       N  0.64076336  0.11975794  0.33022252     0.66400
H1876       H  0.66307883  0.16349469  0.38733149     0.15300
H1877       H  0.54179585  0.09087217  0.41898582     0.15000
N1878       N  0.56499965  0.13079869  0.47719306     0.74100
O1879       O  0.63719594  0.14530589  0.30388745    -0.39300
O1880       O  0.66817733  0.09637930  0.32785597    -0.39300
O1881       O  0.53451213  0.14993887  0.48031046    -0.40000
O1882       O  0.56938872  0.10250731  0.50030202    -0.40000
C1883       C  0.62786144  0.30493697  0.44797894    -0.12300
C1884       C  0.61042198  0.27754410  0.47443800     0.04700
C1885       C  0.57453140  0.28646428  0.49147111    -0.07600
C1886       C  0.55906777  0.32304390  0.48479509    -0.08400
C1887       C  0.57920226  0.35224750  0.46295051    -0.02900
C1888       C  0.61279891  0.34221387  0.44248223     0.03900
N1889       N  0.63345780  0.37014147  0.41857391     0.66400
H1890       H  0.65460716  0.29819531  0.43305765     0.15300
H1891       H  0.53240824  0.32981442  0.49995354     0.15000
N1892       N  0.55577788  0.26149069  0.51985727     0.74100
O1893       O  0.62664923  0.37236011  0.38272269    -0.39300
O1894       O  0.66315517  0.38671112  0.43134510    -0.39300
O1895       O  0.55755123  0.27054680  0.55522663    -0.40000
O1896       O  0.52854481  0.23955857  0.50941315    -0.40000
C1897       C  0.24824254  0.97235346  0.71338701    -0.12300
C1898       C  0.22683005  0.00672557  0.71508354     0.04700
C1899       C  0.24519200  0.04010728  0.73071747    -0.07600
C1900       C  0.28406533  0.03942890  0.74064332    -0.08400
C1901       C  0.30566512  0.00561690  0.73729155    -0.02900
C1902       C  0.28682466  0.97143862  0.72440646     0.03900
N1903       N  0.30645052  0.93541418  0.72165929     0.66400
H1904       H  0.23537497  0.94531902  0.70436272     0.15300
H1905       H  0.29734682  0.06584030  0.75123489     0.15000
N1906       N  0.22491378  0.07528298  0.73694419     0.74100
O1907       O  0.30700298  0.91255020  0.75070387    -0.39300
O1908       O  0.32227226  0.92589526  0.68988514    -0.39300
O1909       O  0.20888280  0.08060792  0.76970342    -0.40000
O1910       O  0.23270771  0.10434251  0.71514236    -0.40000
C1911       C  0.72985021  0.97709821  0.71762396    -0.12300
C1912       C  0.75051666  0.01189494  0.70911486     0.04700
C1913       C  0.73033638  0.04728764  0.71304493    -0.07600
C1914       C  0.69054331  0.04654031  0.72147282    -0.08400
C1915       C  0.66988013  0.01149314  0.72834066    -0.02900
C1916       C  0.69051611  0.97641148  0.72696658     0.03900
N1917       N  0.67248196  0.93951864  0.73566468     0.66400
H1918       H  0.74461692  0.94966095  0.71773093     0.15300
H1919       H  0.67597805  0.07398940  0.72374322     0.15000
N1920       N  0.74960603  0.08431332  0.71238864     0.74100
O1921       O  0.66255156  0.91793818  0.70814428    -0.39300
O1922       O  0.67432225  0.92527747  0.76961718    -0.39300
O1923       O  0.74281901  0.10843199  0.68548799    -0.40000
O1924       O  0.76498514  0.09621655  0.74300642    -0.40000
C1925       C  0.35375092  0.15519379  0.59929054    -0.12300
C1926       C  0.35945510  0.14484999  0.56036286     0.04700
C1927       C  0.38319752  0.11317190  0.55164303    -0.07600
C1928       C  0.40127182  0.09325022  0.58160900    -0.08400
C1929       C  0.39672012  0.10418742  0.62065985    -0.02900
C1930       C  0.37234517  0.13568010  0.62931800     0.03900
N1931       N  0.36719348  0.14946204  0.66806609     0.66400
H1932       H  0.33605760  0.17980757  0.60636820     0.15300
H1933       H  0.41912311  0.06895148  0.57391386     0.15000
N1934       N  0.38824158  0.09958292  0.51278865     0.74100
O1935       O  0.38744563  0.17784075  0.67915316    -0.39300
O1936       O  0.33761858  0.13903938  0.68780115    -0.39300
O1937       O  0.41944223  0.10738008  0.49459066    -0.40000
O1938       O  0.36833643  0.07067515  0.50245305    -0.40000
C1939       C  0.57827324  0.17297164  0.57844915    -0.12300
C1940       C  0.61008596  0.15847002  0.55810744     0.04700
C1941       C  0.62124986  0.11971586  0.56575060    -0.07600
C1942       C  0.60025622  0.09651976  0.59290255    -0.08400
C1943       C  0.56907597  0.11151057  0.61381431    -0.02900
C1944       C  0.55829475  0.15023165  0.60679212     0.03900
N1945       N  0.52793744  0.16725502  0.62901643     0.66400
H1946       H  0.56990775  0.20258779  0.57361031     0.15300
H1947       H  0.60905365  0.06693643  0.59848499     0.15000
N1948       N  0.65355751  0.10325104  0.54597163     0.74100
O1949       O  0.53571881  0.18435973  0.66015612    -0.39300
O1950       O  0.49602642  0.17299099  0.61343230    -0.39300
O1951       O  0.68443847  0.09898290  0.56395238    -0.40000
O1952       O  0.64847067  0.08477178  0.51503156    -0.40000
C1953       C  0.57399779  0.85808258  0.57925416    -0.12300
C1954       C  0.61232763  0.86606184  0.56752237     0.04700
C1955       C  0.63110623  0.89964700  0.58242972    -0.07600
C1956       C  0.61144019  0.92351357  0.60862709    -0.08400
C1957       C  0.57351847  0.91475904  0.62041318    -0.02900
C1958       C  0.55488457  0.88171713  0.60590445     0.03900
N1959       N  0.51722050  0.87073875  0.61987116     0.66400
H1960       H  0.55900941  0.83285252  0.56838800     0.15300
H1961       H  0.62595820  0.94893274  0.61999512     0.15000
N1962       N  0.66958411  0.91081958  0.57086313     0.74100
O1963       O  0.48831152  0.88166511  0.60145304    -0.39300
O1964       O  0.51282008  0.85703132  0.65398976    -0.39300
O1965       O  0.67476006  0.93705077  0.54514514    -0.40000
O1966       O  0.69644728  0.90404144  0.59389059    -0.40000
C1967       C  0.37828439  0.92703191  0.59742657    -0.12300
C1968       C  0.39800047  0.90895834  0.62774908     0.04700
C1969       C  0.39743847  0.86782675  0.63051296    -0.07600
C1970       C  0.37944376  0.84597232  0.60186170    -0.08400
C1971       C  0.35978082  0.86406026  0.57182054    -0.02900
C1972       C  0.35833109  0.90493450  0.57017440     0.03900
N1973       N  0.33680135  0.92436550  0.54110012     0.66400
H1974       H  0.37767567  0.95848163  0.59539953     0.15300
H1975       H  0.38016165  0.81449764  0.60349313     0.15000
N1976       N  0.41518592  0.84758571  0.66178994     0.74100
O1977       O  0.30252088  0.93347034  0.54879157    -0.39300
O1978       O  0.35413336  0.93979010  0.51195264    -0.39300
O1979       O  0.39844481  0.84635276  0.69475953    -0.40000
O1980       O  0.43991318  0.82232474  0.65401024    -0.40000
C1981       C  0.51926710  0.21716138  0.75604738    -0.12300
C1982       C  0.48873157  0.19226042  0.76802637     0.04700
C1983       C  0.46048393  0.20642172  0.79387236    -0.07600
C1984       C  0.46251314  0.24460521  0.80642914    -0.08400
C1985       C  0.49204006  0.27050676  0.79349736    -0.02900
C1986       C  0.52110259  0.25588305  0.76820101     0.03900
N1987       N  0.55273619  0.27985666  0.75436702     0.66400
H1988       H  0.54189665  0.20660324  0.73701271     0.15300
H1989       H  0.43985607  0.25295074  0.82611454     0.15000
N1990       N  0.42962467  0.18222076  0.80875096     0.74100
O1991       O  0.58422908  0.27839625  0.77175604    -0.39300
O1992       O  0.55258238  0.29327850  0.71999534    -0.39300
O1993       O  0.43081125  0.16944819  0.84329608    -0.40000
O1994       O  0.39776891  0.18313754  0.79204509    -0.40000
C1995       C  0.52311931  0.81187175  0.77367686    -0.12300
C1996       C  0.48786265  0.83080734  0.77614104     0.04700
C1997       C  0.45560175  0.81047181  0.79252963    -0.07600
C1998       C  0.45881714  0.77168272  0.80411670    -0.08400
C1999       C  0.49399574  0.75214746  0.80085436    -0.02900
C2000       C  0.52666791  0.77349940  0.78631289     0.03900
N2001       N  0.56379507  0.75658352  0.78313996     0.66400
H2002       H  0.54859455  0.82690029  0.76193757     0.15300
H2003       H  0.43272449  0.75745651  0.81458361     0.15000
N2004       N  0.41938188  0.82869540  0.79857632     0.74100
O2005       O  0.57659982  0.74762470  0.74992613    -0.39300
O2006       O  0.58738648  0.76241643  0.80985634    -0.39300
O2007       O  0.39199200  0.82087958  0.77640651    -0.40000
O2008       O  0.41237159  0.84498507  0.83054232    -0.40000
C2009       C  0.40612600  0.09588425  0.91818760    -0.12300
C2010       C  0.39185304  0.09550755  0.88020839     0.04700
C2011       C  0.35646788  0.11381064  0.87300374    -0.07600
C2012       C  0.33740043  0.13308527  0.90306072    -0.08400
C2013       C  0.35188466  0.13317202  0.94062264    -0.02900
C2014       C  0.38622352  0.11404617  0.94836731     0.03900
N2015       N  0.40155102  0.11323394  0.98656599     0.66400
H2016       H  0.43303902  0.08215673  0.92469901     0.15300
H2017       H  0.31016713  0.14666553  0.89745180     0.15000
N2018       N  0.33806523  0.11104080  0.83634690     0.74100
O2019       O  0.39998789  0.08191850  0.00617653    -0.39300
O2020       O  0.42405265  0.14026910  0.99660987    -0.39300
O2021       O  0.31858064  0.08080026  0.82916712    -0.40000
O2022       O  0.33294229  0.14149954  0.81640270    -0.40000
C2023       C  0.40360354  0.90050195  0.90791085    -0.12300
C2024       C  0.38899408  0.93046138  0.88502526     0.04700
C2025       C  0.35048465  0.94146535  0.89070438    -0.07600
C2026       C  0.32740307  0.92278191  0.91956889    -0.08400
C2027       C  0.34155398  0.89214916  0.94192445    -0.02900
C2028       C  0.38009083  0.88064797  0.93555932     0.03900
N2029       N  0.39554745  0.84825365  0.95613095     0.66400
H2030       H  0.43300890  0.89144994  0.90322893     0.15300
H2031       H  0.29790249  0.93114613  0.92331991     0.15000
N2032       N  0.33426846  0.97109104  0.86695608     0.74100
O2033       O  0.39802439  0.81602131  0.93932083    -0.39300
O2034       O  0.41472594  0.85399716  0.98626757    -0.39300
O2035       O  0.31338420  0.96157877  0.83898706    -0.40000
O2036       O  0.33428911  0.00570450  0.87853641    -0.40000
C2037       C  0.61377216  0.91706991  0.94197909    -0.12300
C2038       C  0.63969137  0.88897035  0.92876834     0.04700
C2039       C  0.63979490  0.87973949  0.88880325    -0.07600
C2040       C  0.61442744  0.89824050  0.86360060    -0.08400
C2041       C  0.58843338  0.92641747  0.87680957    -0.02900
C2042       C  0.58841537  0.93558528  0.91683412     0.03900
N2043       N  0.56285565  0.96349546  0.93284190     0.66400
H2044       H  0.61210836  0.92421254  0.97251636     0.15300
H2045       H  0.61557196  0.89054259  0.83315310     0.15000
N2046       N  0.66626518  0.85269108  0.87275620     0.74100
O2047       O  0.52989821  0.95251457  0.94518731    -0.39300
O2048       O  0.57595796  0.99634510  0.94241705    -0.39300
O2049       O  0.65364773  0.82118993  0.85914391    -0.40000
O2050       O  0.70013428  0.86399870  0.86401155    -0.40000
C2051       C  0.62665218  0.09143279  0.87089998    -0.12300
C2052       C  0.58748171  0.10047536  0.87044930     0.04700
C2053       C  0.57278311  0.12814346  0.89622138    -0.07600
C2054       C  0.59725377  0.14592715  0.92245229    -0.08400
C2055       C  0.63589616  0.13541877  0.92434606    -0.02900
C2056       C  0.65095342  0.10875500  0.89777616     0.03900
N2057       N  0.69121410  0.10123180  0.89611529     0.66400
H2058       H  0.63831666  0.07093334  0.85031978     0.15300
H2059       H  0.58590276  0.16760579  0.94190017     0.15000
N2060       N  0.53341455  0.13917180  0.89536701     0.74100
O2061       O  0.70363040  0.06948264  0.90908480    -0.39300
O2062       O  0.71457867  0.12708089  0.88315368    -0.39300
O2063       O  0.50962413  0.12445069  0.91993908    -0.40000
O2064       O  0.52436618  0.16892142  0.87597939    -0.40000
loop_ 
_geom_bond_atom_site_label_1 
_geom_bond_atom_site_label_2 
_geom_bond_distance 
_geom_bond_site_symmetry_2 
_ccdc_geom_bond_type 
O1           C12   1.291       .  A
O1          Eu37   2.458       .  S
O2           C13   1.294       .  A
O2          Eu36   2.479       .  S
O3           C14   1.296       .  A
O3           Eu9   2.488       .  S
O4           C15   1.291       .  A
O4           Eu9   2.455       .  S
O5           C15   1.292       .  A
O5          Eu39   2.461       .  S
O6           C14   1.288   1_565  A
O6          Eu38   2.446       .  S
O7           C13   1.289       .  A
O7           Eu9   2.450       .  S
O8           C12   1.288       .  A
O8           Eu9   2.444       .  S
Eu9          O19   2.363       .  S
Eu9          O11   2.348       .  S
Eu9          O10   2.356       .  S
Eu9          O17   2.349       .  S
O10         Eu39   2.353       .  S
O10         Eu36   2.356       .  S
O11         Eu37   2.355       .  S
O11         Eu38   2.339   1_545  S
C12        C2052   1.462       .  S
C13        C1943   1.473       .  S
C14        C1915   1.500       .  S
C15        C1982   1.480       .  S
H16          O17   0.955       .  S
O17         Eu38   2.356   1_545  S
O17         Eu36   2.351       .  S
H18          O19   0.962       .  S
O19         Eu37   2.344       .  S
O19         Eu39   2.363       .  S
O20          C43   1.296       .  A
O20         Eu36   2.484   1_565  S
O21          C44   1.291       .  A
O21         Eu37   2.463   1_565  S
O22          C45   1.289       .  A
O22         Eu38   2.447       .  S
O23          C46   1.288       .  A
O23         Eu39   2.445       .  S
O24          C47   1.289       .  A
O24         Eu39   2.445       .  S
O25          C48   1.292       .  A
O25         Eu38   2.458       .  S
O26          C49   1.287       .  A
O26         Eu40   2.438       .  S
O27          C50   1.288   1_565  A
O27         Eu40   2.449       .  S
O28          C49   1.290       .  A
O28         Eu38   2.442       .  S
O29          C50   1.296       .  A
O29         Eu39   2.483       .  S
O30          C45   1.293       .  A
O30         Eu36   2.471   1_565  S
O31          C48   1.295       .  A
O31         Eu37   2.486   1_565  S
O32          C47   1.292       .  A
O32         Eu37   2.455       .  S
O33          C46   1.294       .  A
O33         Eu36   2.468       .  S
O34          C43   1.289       .  A
O34         Eu40   2.449       .  S
O35          C44   1.290       .  A
O35         Eu40   2.456       .  S
Eu36         O54   2.346       .  S
Eu36         O42   2.359   1_545  S
Eu37         O41   2.358       .  S
Eu37         O52   2.335   1_545  S
Eu38         O52   2.355       .  S
Eu38         O42   2.350       .  S
Eu39         O41   2.343       .  S
Eu39         O54   2.351       .  S
Eu40         O41   2.339   1_565  S
Eu40         O52   2.359       .  S
Eu40         O54   2.351   1_565  S
Eu40         O42   2.352       .  S
C43        C1968   1.482       .  S
C44        C2024   1.470       .  S
C45        C1957   1.468       .  S
C46        C1929   1.492       .  S
C47        C2010   1.484       .  S
C48        C2041   1.504       .  S
C49        C1996   1.478       .  S
C50        C1901   1.497       .  S
H51          O52   0.960       .  S
H53          O54   0.962       .  S
C55          C56   1.542       .  S
C55          C61   1.523       .  S
C55          C59   1.546       .  S
C55        C1856   1.539       .  S
C56          H63   1.080       .  S
C56          C57   1.362       .  D
C57          C58   1.546       .  S
C57        C1940   1.489       .  S
C58          C62   1.550       .  S
C58          C60   1.539       .  S
C58          H64   1.098       .  S
C59          H65   1.085       .  S
C59          C60   1.379       .  D
C60        C1870   1.501       .  S
C61          H66   1.086       .  S
C61          C62   1.359       .  D
C62        C1884   1.498       .  S
O67          C78   1.296       .  A
O67        Eu103   2.476       .  S
O68          C79   1.295       .  A
O68        Eu102   2.472       .  S
O69          C80   1.289       .  A
O69         Eu75   2.452       .  S
O70          C81   1.289       .  A
O70         Eu75   2.448       .  S
O71          C81   1.287       .  A
O71        Eu105   2.428       .  S
O72          C80   1.293   1_565  A
O72        Eu104   2.468       .  S
O73          C79   1.290       .  A
O73         Eu75   2.451       .  S
O74          C78   1.288       .  A
O74         Eu75   2.444       .  S
Eu75         O85   2.354       .  S
Eu75         O77   2.350       .  S
Eu75         O76   2.353       .  S
Eu75         O83   2.343       .  S
O76        Eu105   2.343       .  S
O76        Eu102   2.338       .  S
O77        Eu103   2.355       .  S
O77        Eu104   2.350   1_545  S
C78        C1873   1.487       .  S
C79        C1803   1.490       .  S
C80        C1716   1.492       .  S
C81        C1775   1.475       .  S
H82          O83   0.968       .  S
O83        Eu104   2.340   1_545  S
O83        Eu102   2.367       .  S
H84          O85   0.960       .  S
O85        Eu103   2.365       .  S
O85        Eu105   2.352       .  S
O86         C109   1.293       .  A
O86        Eu102   2.459   1_565  S
O87         C110   1.295       .  A
O87        Eu103   2.482   1_565  S
O88         C111   1.291       .  A
O88        Eu104   2.457       .  S
O89         C112   1.291       .  A
O89        Eu105   2.462       .  S
O90         C113   1.286       .  A
O90        Eu105   2.435       .  S
O91         C114   1.288       .  A
O91        Eu104   2.440       .  S
O92         C115   1.289       .  A
O92        Eu106   2.441       .  S
O93         C116   1.291   1_565  A
O93        Eu106   2.459       .  S
O94         C115   1.291       .  A
O94        Eu104   2.457       .  S
O95         C116   1.289       .  A
O95        Eu105   2.443       .  S
O96         C111   1.290       .  A
O96        Eu102   2.447   1_565  S
O97         C114   1.296       .  A
O97        Eu103   2.471   1_565  S
O98         C113   1.298       .  A
O98        Eu103   2.500       .  S
O99         C112   1.294       .  A
O99        Eu102   2.480       .  S
O100        C109   1.292       .  A
O100       Eu106   2.464       .  S
O101        C110   1.296       .  A
O101       Eu106   2.476       .  S
Eu102       O120   2.364       .  S
Eu102       O108   2.345   1_545  S
Eu103       O107   2.348       .  S
Eu103       O118   2.368   1_545  S
Eu104       O118   2.353       .  S
Eu104       O108   2.343       .  S
Eu105       O107   2.349       .  S
Eu105       O120   2.339       .  S
Eu106       O107   2.345   1_565  S
Eu106       O118   2.343       .  S
Eu106       O120   2.356   1_565  S
Eu106       O108   2.353       .  S
C109       C1831   1.488       .  S
C110       C1733   1.506       .  S
C111       C1814   1.467       .  S
C112       C1845   1.480       .  S
C113       C1758   1.473       .  S
C114       C1744   1.484       .  S
C115       C1786   1.483       .  S
C116       C1705   1.488       .  S
H117        O118   0.965       .  S
H119        O120   0.971       .  S
C121        C122   1.527   1_554  S
C121        C127   1.525       .  S
C121        C125   1.549       .  S
C121       C1674   1.534   1_554  S
C122        H129   1.086       .  S
C122        C123   1.362       .  D
C123        C124   1.552   1_556  S
C123       C2027   1.486       .  S
C124        C128   1.558       .  S
C124        C126   1.543       .  S
C124        H130   1.099       .  S
C125        H131   1.079       .  S
C125        C126   1.371       .  D
C126       C1828   1.499       .  S
C127        H132   1.086       .  S
C127        C128   1.364       .  D
C128       C1688   1.510       .  S
C133        C134   1.550   1_556  S
C133        C139   1.530   1_556  S
C133        C137   1.544       .  S
C133       C1649   1.536       .  S
C134        H141   1.080       .  S
C134        C135   1.359       .  D
C135        C136   1.526   1_554  S
C135       C1817   1.465       .  S
C136        C140   1.535   1_556  S
C136        C138   1.550       .  S
C136        H142   1.110       .  S
C137        H143   1.083       .  S
C137        C138   1.376       .  D
C138       C2038   1.505       .  S
C139        H144   1.085       .  S
C139        C140   1.358       .  D
C140       C1663   1.482       .  S
C145        C146   1.545       .  S
C145        C151   1.537       .  S
C145        C149   1.551       .  S
C145       C1618   1.549       .  S
C146        H153   1.085       .  S
C146        C147   1.367       .  D
C147        C148   1.530       .  S
C147       C1747   1.474       .  S
C148        C152   1.541       .  S
C148        C150   1.541       .  S
C148        H154   1.111       .  S
C149        H155   1.075       .  S
C149        C150   1.365       .  D
C150       C1954   1.496       .  S
C151        H156   1.086       .  S
C151        C152   1.366       .  D
C152       C1632   1.488       .  S
C157        C158   1.556       .  S
C157        C163   1.527       .  S
C157        C161   1.537   1_554  S
C157       C1593   1.542       .  S
C158        H165   1.081       .  S
C158        C159   1.380       .  D
C159        C160   1.545       .  S
C159       C1842   1.510       .  S
C160        C164   1.538   1_554  S
C160        C162   1.530   1_554  S
C160        H166   1.103       .  S
C161        H167   1.085       .  S
C161        C162   1.362       .  D
C162       C2013   1.467       .  S
C163        H168   1.087   1_554  S
C163        C164   1.360   1_554  D
C164       C1607   1.481       .  S
C169        C170   1.542       .  S
C169        C175   1.525       .  S
C169        C173   1.533   1_556  S
C169       C1562   1.521       .  S
C170        H177   1.084       .  S
C170        C171   1.359       .  D
C171        C172   1.537       .  S
C171       C2055   1.470       .  S
C172        C176   1.546       .  S
C172        C174   1.546   1_556  S
C172        H178   1.110       .  S
C173        H179   1.085       .  S
C173        C174   1.365       .  D
C174       C1800   1.480       .  S
C175        H180   1.087       .  S
C175        C176   1.359       .  D
C176       C1579   1.483       .  S
C181        C182   1.549       .  S
C181        C187   1.547       .  S
C181        C185   1.544       .  S
C181       C1534   1.550       .  S
C182        H189   1.085       .  S
C182        C183   1.372       .  D
C183        C184   1.533       .  S
C183       C1761   1.483       .  S
C184        C188   1.525       .  S
C184        C186   1.531       .  S
C184        H190   1.109       .  S
C185        H191   1.086       .  S
C185        C186   1.371       .  D
C186       C1926   1.482       .  S
C187        H192   1.080       .  S
C187        C188   1.358       .  D
C188       C1548   1.476       .  S
C193        C194   1.539       .  S
C193        C199   1.537       .  S
C193        C197   1.543       .  S
C193       C1509   1.541       .  S
C194        H201   1.086       .  S
C194        C195   1.365       .  D
C195        C196   1.537       .  S
C195       C1971   1.477       .  S
C196        C200   1.547       .  S
C196        C198   1.550       .  S
C196        H202   1.110       .  S
C197        H203   1.080       .  S
C197        C198   1.371       .  D
C198       C1730   1.502       .  S
C199        H204   1.085       .  S
C199        C200   1.357       .  D
C200       C1520   1.493       .  S
O205        C216   1.292       .  A
O205       Eu241   2.464       .  S
O206        C217   1.291   1_455  A
O206       Eu240   2.454       .  S
O207        C218   1.291       .  A
O207       Eu213   2.453       .  S
O208        C219   1.294       .  A
O208       Eu213   2.463       .  S
O209        C219   1.287       .  A
O209       Eu243   2.441       .  S
O210        C218   1.290       .  A
O210       Eu242   2.452       .  S
O211        C217   1.290       .  A
O211       Eu213   2.452       .  S
O212        C216   1.294       .  A
O212       Eu213   2.473       .  S
Eu213       O223   2.343       .  S
Eu213       O215   2.347       .  S
Eu213       O214   2.351       .  S
Eu213       O221   2.353       .  S
O214       Eu243   2.347       .  S
O214       Eu240   2.355   1_655  S
O215       Eu241   2.349       .  S
O215       Eu242   2.354       .  S
C216       C1621   1.499       .  S
C217       C1366   1.490       .  S
C218       C1464   1.470       .  S
C219       C1439   1.487       .  S
H220        O221   0.968       .  S
O221       Eu242   2.361       .  S
O221       Eu240   2.348   1_655  S
H222        O223   0.962       .  S
O223       Eu241   2.338       .  S
O223       Eu243   2.366       .  S
O224        C247   1.293       .  A
O224       Eu240   2.474       .  S
O225        C248   1.288       .  A
O225       Eu241   2.439       .  S
O226        C249   1.295       .  A
O226       Eu242   2.484   1_455  S
O227        C250   1.288       .  A
O227       Eu243   2.446   1_455  S
O228        C251   1.289       .  A
O228       Eu243   2.453       .  S
O229        C252   1.293       .  A
O229       Eu242   2.471       .  S
O230        C253   1.295       .  A
O230       Eu244   2.473       .  S
O231        C254   1.293       .  A
O231       Eu244   2.459       .  S
O232        C253   1.292       .  A
O232       Eu242   2.464   1_455  S
O233        C254   1.292       .  A
O233       Eu243   2.468   1_455  S
O234        C249   1.292       .  A
O234       Eu240   2.465       .  S
O235        C252   1.290       .  A
O235       Eu241   2.454       .  S
O236        C251   1.292       .  A
O236       Eu241   2.469       .  S
O237        C250   1.293       .  A
O237       Eu240   2.460       .  S
O238        C247   1.291       .  A
O238       Eu244   2.452       .  S
O239        C248   1.291   1_455  A
O239       Eu244   2.452       .  S
Eu240       O258   2.348       .  S
Eu240       O246   2.356       .  S
Eu241       O245   2.352       .  S
Eu241       O256   2.356       .  S
Eu242       O256   2.364       .  S
Eu242       O246   2.353   1_655  S
Eu243       O245   2.338       .  S
Eu243       O258   2.359   1_655  S
Eu244       O245   2.348   1_455  S
Eu244       O256   2.348   1_455  S
Eu244       O258   2.347       .  S
Eu244       O246   2.355       .  S
C247       C1506   1.479       .  S
C248       C1380   1.475       .  S
C249       C1450   1.481       .  S
C250       C1394   1.482       .  S
C251       C1422   1.467       .  S
C252       C1478   1.469       .  S
C253       C1492   1.499       .  S
C254       C1408   1.497       .  S
H255        O256   0.962       .  S
H257        O258   0.967       .  S
O259        C270   1.293       .  A
O259       Eu295   2.472       .  S
O260        C271   1.291   1_455  A
O260       Eu294   2.457       .  S
O261        C272   1.293       .  A
O261       Eu267   2.475       .  S
O262        C273   1.290       .  A
O262       Eu267   2.456       .  S
O263        C273   1.296       .  A
O263       Eu297   2.487       .  S
O264        C272   1.295       .  A
O264       Eu296   2.481       .  S
O265        C271   1.290       .  A
O265       Eu267   2.443       .  S
O266        C270   1.291       .  A
O266       Eu267   2.453       .  S
Eu267       O277   2.366       .  S
Eu267       O269   2.338       .  S
Eu267       O268   2.350       .  S
Eu267       O275   2.366       .  S
O268       Eu297   2.364       .  S
O268       Eu294   2.357   1_655  S
O269       Eu295   2.348       .  S
O269       Eu296   2.353       .  S
C270       C1859   1.493       .  S
C271       C1226   1.481       .  S
C272       C1257   1.489       .  S
C273       C1338   1.479       .  S
H274        O275   0.966       .  S
O275       Eu296   2.342       .  S
O275       Eu294   2.365   1_655  S
H276        O277   0.966       .  S
O277       Eu295   2.355       .  S
O277       Eu297   2.346       .  S
O278        C301   1.290       .  A
O278       Eu294   2.460       .  S
O279        C302   1.292       .  A
O279       Eu295   2.458       .  S
O280        C303   1.295       .  A
O280       Eu296   2.484   1_455  S
O281        C304   1.294       .  A
O281       Eu297   2.464   1_455  S
O282        C305   1.301       .  A
O282       Eu297   2.511       .  S
O283        C306   1.294       .  A
O283       Eu296   2.464       .  S
O284        C307   1.291       .  A
O284       Eu298   2.460       .  S
O285        C308   1.294       .  A
O285       Eu298   2.466       .  S
O286        C307   1.288       .  A
O286       Eu296   2.445   1_455  S
O287        C308   1.292       .  A
O287       Eu297   2.466   1_455  S
O288        C303   1.295       .  A
O288       Eu294   2.475       .  S
O289        C306   1.288       .  A
O289       Eu295   2.443       .  S
O290        C305   1.288       .  A
O290       Eu295   2.444       .  S
O291        C304   1.292       .  A
O291       Eu294   2.464       .  S
O292        C301   1.293       .  A
O292       Eu298   2.476       .  S
O293        C302   1.291   1_455  A
O293       Eu298   2.457       .  S
Eu294       O312   2.357       .  S
Eu294       O300   2.343       .  S
Eu295       O299   2.350       .  S
Eu295       O310   2.357       .  S
Eu296       O310   2.350       .  S
Eu296       O300   2.363   1_655  S
Eu297       O299   2.356       .  S
Eu297       O312   2.352   1_655  S
Eu298       O299   2.354   1_455  S
Eu298       O310   2.363   1_455  S
Eu298       O312   2.349       .  S
Eu298       O300   2.347       .  S
C301       C1537   1.474       .  S
C302       C1240   1.490       .  S
C303       C1299   1.509       .  S
C304       C1355   1.494       .  S
C305       C1324   1.509       .  S
C306       C1271   1.489       .  S
C307       C1282   1.462       .  S
C308       C1313   1.493       .  S
H309        O310   0.971       .  S
H311        O312   0.968       .  S
C313        C314   1.550       .  S
C313        C319   1.521       .  S
C313        C317   1.526       .  S
C313       C1198   1.539       .  S
C314        H321   1.081       .  S
C314        C315   1.370       .  D
C315        C316   1.538       .  S
C315       C1268   1.486       .  S
C316        C320   1.551       .  S
C316        C318   1.553       .  S
C316        H322   1.107       .  S
C317        H323   1.083       .  S
C317        C318   1.369       .  D
C318       C1425   1.499       .  S
C319        H324   1.087       .  S
C319        C320   1.362       .  D
C320       C1212   1.486       .  S
C325        C326   1.541       .  S
C325        C331   1.527       .  S
C325        C329   1.549       .  S
C325       C1170   1.536       .  S
C326        H333   1.084       .  S
C326        C327   1.371       .  D
C327        C328   1.541       .  S
C327       C1411   1.487       .  S
C328        C332   1.533       .  S
C328        C330   1.528       .  S
C328        H334   1.108       .  S
C329        H335   1.085       .  S
C329        C330   1.367       .  D
C330       C1285   1.476       .  S
C331        H336   1.087       .  S
C331        C332   1.360       .  D
C332       C1184   1.478       .  S
C337        C338   1.552   1_545  S
C337        C343   1.528       .  S
C337        C341   1.543       .  S
C337       C1719   1.540       .  S
C338        H345   1.082       .  S
C338        C339   1.361       .  D
C339        C340   1.523   1_565  S
C339       C1467   1.464       .  S
C340        C344   1.540       .  S
C340        C342   1.550       .  S
C340        H346   1.110       .  S
C341        H347   1.081       .  S
C341        C342   1.374       .  D
C342       C1341   1.504       .  S
C343        H348   1.085       .  S
C343        C344   1.360       .  D
C344       C1159   1.486   1_545  S
C349        C350   1.544       .  S
C349        C355   1.530   1_545  S
C349        C353   1.548   1_545  S
C349       C1912   1.542       .  S
C350        H357   1.080       .  S
C350        C351   1.373       .  D
C351        C352   1.545   1_545  S
C351       C1327   1.505       .  S
C352        C356   1.546       .  S
C352        C354   1.540       .  S
C352        H358   1.106       .  S
C353        H359   1.084       .  S
C353        C354   1.369       .  D
C354       C1481   1.485       .  S
C355        H360   1.087       .  S
C355        C356   1.358       .  D
C356       C1142   1.491       .  S
C361        C362   1.544       .  S
C361        C367   1.530       .  S
C361        C365   1.548       .  S
C361       C1114   1.543       .  S
C362        H369   1.085       .  S
C362        C363   1.367       .  D
C363        C364   1.534       .  S
C363       C1436   1.475       .  S
C364        C368   1.538       .  S
C364        C366   1.544       .  S
C364        H370   1.109       .  S
C365        H371   1.084       .  S
C365        C366   1.367       .  D
C366       C1254   1.490       .  S
C367        H372   1.087       .  S
C367        C368   1.366       .  D
C368       C1131   1.493       .  S
C373        C374   1.548       .  S
C373        C379   1.531       .  S
C373        C377   1.532       .  S
C373       C1089   1.528       .  S
C374        H381   1.078       .  S
C374        C375   1.367       .  D
C375        C376   1.550       .  S
C375       C1296   1.503       .  S
C376        C380   1.548       .  S
C376        C378   1.539       .  S
C376        H382   1.111       .  S
C377        H383   1.085       .  S
C377        C378   1.361       .  D
C378       C1397   1.468       .  S
C379        H384   1.087       .  S
C379        C380   1.357       .  D
C380       C1100   1.478       .  S
C385        C386   1.539       .  S
C385        C391   1.520       .  S
C385        C389   1.541   1_545  S
C385       C1702   1.536       .  S
C386        H393   1.085       .  S
C386        C387   1.372       .  D
C387        C388   1.546       .  S
C387       C1352   1.489       .  S
C388        C392   1.554       .  S
C388        C390   1.553   1_545  S
C388        H394   1.106       .  S
C389        H395   1.082       .  S
C389        C390   1.366       .  D
C390       C1453   1.496       .  S
C391        H396   1.087       .  S
C391        C392   1.359       .  D
C392       C1072   1.496       .  S
C397        C398   1.554   1_545  S
C397        C403   1.532       .  S
C397        C401   1.543       .  S
C397       C1898   1.545       .  S
C398        H405   1.080       .  S
C398        C399   1.373       .  D
C399        C400   1.542   1_565  S
C399       C1495   1.501       .  S
C400        C404   1.534       .  S
C400        C402   1.540       .  S
C400        H406   1.110       .  S
C401        H407   1.085       .  S
C401        C402   1.365       .  D
C402       C1310   1.482       .  S
C403        H408   1.086       .  S
C403        C404   1.362       .  D
C404       C1061   1.477       .  S
O409        C420   1.290   1_556  A
O409       Eu445   2.448       .  S
O410        C421   1.290       .  A
O410       Eu444   2.457       .  S
O411        C422   1.294       .  A
O411       Eu417   2.462       .  S
O412        C423   1.289       .  A
O412       Eu417   2.452       .  S
O413        C423   1.292       .  A
O413       Eu447   2.463       .  S
O414        C422   1.285       .  A
O414       Eu446   2.428       .  S
O415        C421   1.296       .  A
O415       Eu417   2.478       .  S
O416        C420   1.291       .  A
O416       Eu417   2.457       .  S
Eu417       O427   2.352       .  S
Eu417       O419   2.342       .  S
Eu417       O418   2.343       .  S
Eu417       O425   2.343       .  S
O418       Eu447   2.350       .  S
O418       Eu444   2.348       .  S
O419       Eu445   2.349   1_554  S
O419       Eu446   2.343       .  S
C420       C1646   1.481       .  S
C421       C1117   1.501       .  S
C422        C960   1.470       .  S
C423       C1047   1.463       .  S
H424        O425   0.973       .  S
O425       Eu446   2.370       .  S
O425       Eu444   2.353       .  S
H426        O427   0.963       .  S
O427       Eu445   2.348   1_554  S
O427       Eu447   2.360       .  S
O428        C451   1.292       .  A
O428       Eu444   2.460       .  S
O429        C452   1.295       .  A
O429       Eu445   2.476       .  S
O430        C453   1.296       .  A
O430       Eu446   2.480       .  S
O431        C454   1.291       .  A
O431       Eu447   2.458       .  S
O432        C455   1.296       .  A
O432       Eu447   2.481   1_556  S
O433        C456   1.292       .  A
O433       Eu446   2.454   1_556  S
O434        C457   1.293       .  A
O434       Eu448   2.478       .  S
O435        C458   1.288       .  A
O435       Eu448   2.440       .  S
O436        C457   1.290       .  A
O436       Eu446   2.460   1_556  S
O437        C458   1.297       .  A
O437       Eu447   2.482   1_556  S
O438        C453   1.293       .  A
O438       Eu444   2.468       .  S
O439        C456   1.290       .  A
O439       Eu445   2.452       .  S
O440        C455   1.290       .  A
O440       Eu445   2.457       .  S
O441        C454   1.295       .  A
O441       Eu444   2.472       .  S
O442        C451   1.284   1_556  A
O442       Eu448   2.416       .  S
O443        C452   1.286       .  A
O443       Eu448   2.429       .  S
Eu444       O462   2.349       .  S
Eu444       O450   2.361       .  S
Eu445       O449   2.344       .  S
Eu445       O460   2.351       .  S
Eu446       O460   2.363   1_554  S
Eu446       O450   2.342       .  S
Eu447       O449   2.344   1_554  S
Eu447       O462   2.365       .  S
Eu448       O449   2.353       .  S
Eu448       O460   2.335       .  S
Eu448       O462   2.353   1_556  S
Eu448       O450   2.350   1_556  S
C451       C1565   1.478   1_554  S
C452       C1201   1.482       .  S
C453        C946   1.499       .  S
C454       C1002   1.485       .  S
C455       C1033   1.486       .  S
C456        C974   1.486       .  S
C457        C988   1.475       .  S
C458       C1019   1.488       .  S
H459        O460   0.965       .  S
H461        O462   0.956       .  S
O463        C474   1.294       .  A
O463       Eu499   2.474       .  S
O464        C475   1.287       .  A
O464       Eu498   2.436       .  S
O465        C476   1.290       .  A
O465       Eu471   2.452       .  S
O466        C477   1.293       .  A
O466       Eu471   2.464       .  S
O467        C477   1.292       .  A
O467       Eu501   2.468   1_554  S
O468        C476   1.293       .  A
O468       Eu500   2.465   1_554  S
O469        C475   1.291       .  A
O469       Eu471   2.447       .  S
O470        C474   1.291   1_554  A
O470       Eu471   2.449       .  S
Eu471       O481   2.357   1_554  S
Eu471       O473   2.347   1_554  S
Eu471       O472   2.335       .  S
Eu471       O479   2.357       .  S
O472       Eu501   2.350   1_554  S
O472       Eu498   2.354       .  S
O473       Eu499   2.359       .  S
O473       Eu500   2.359       .  S
C474       C1677   1.479       .  S
C475       C1086   1.477       .  S
C476        C865   1.496       .  S
C477        C918   1.501       .  S
H478        O479   0.975       .  S
O479       Eu500   2.325   1_554  S
O479       Eu498   2.346       .  S
H480        O481   0.970       .  S
O481       Eu499   2.359       .  S
O481       Eu501   2.329       .  S
O482        C505   1.288       .  A
O482       Eu498   2.442       .  S
O483        C506   1.292       .  A
O483       Eu499   2.457       .  S
O484        C507   1.292       .  A
O484       Eu500   2.469   1_554  S
O485        C508   1.289       .  A
O485       Eu501   2.451   1_554  S
O486        C509   1.293       .  A
O486       Eu501   2.473       .  S
O487        C510   1.289       .  A
O487       Eu500   2.440       .  S
O488        C511   1.288       .  A
O488       Eu502   2.443       .  S
O489        C512   1.288       .  A
O489       Eu502   2.436       .  S
O490        C511   1.287       .  A
O490       Eu500   2.441       .  S
O491        C512   1.287       .  A
O491       Eu501   2.427       .  S
O492        C507   1.294       .  A
O492       Eu498   2.472       .  S
O493        C510   1.290       .  A
O493       Eu499   2.449       .  S
O494        C509   1.292       .  A
O494       Eu499   2.472       .  S
O495        C508   1.289       .  A
O495       Eu498   2.447       .  S
O496        C505   1.297   1_556  A
O496       Eu502   2.488       .  S
O497        C506   1.295       .  A
O497       Eu502   2.479       .  S
Eu498       O516   2.353   1_554  S
Eu498       O504   2.337   1_554  S
Eu499       O503   2.343       .  S
Eu499       O514   2.362       .  S
Eu500       O514   2.344       .  S
Eu500       O504   2.354       .  S
Eu501       O503   2.355       .  S
Eu501       O516   2.347       .  S
Eu502       O503   2.354       .  S
Eu502       O514   2.355       .  S
Eu502       O516   2.351       .  S
Eu502       O504   2.348       .  S
C505       C1590   1.498       .  S
C506       C1173   1.498       .  S
C507        C848   1.500       .  S
C508        C935   1.458       .  S
C509        C907   1.480       .  S
C510        C876   1.470       .  S
C511        C834   1.453       .  S
C512        C890   1.474       .  S
H513        O514   0.973       .  S
H515        O516   0.974       .  S
C517        C518   1.548   1_655  S
C517        C523   1.526   1_655  S
C517        C521   1.526       .  S
C517       C1383   1.520       .  S
C518        H525   1.080       .  S
C518        C519   1.377       .  D
C519        C520   1.538   1_455  S
C519        C879   1.500       .  S
C520        C524   1.551   1_655  S
C520        C522   1.549       .  S
C520        H526   1.095   1_655  S
C521        H527   1.086       .  S
C521        C522   1.357       .  D
C522       C1030   1.482       .  S
C523        H528   1.085       .  S
C523        C524   1.353       .  D
C524        C820   1.493       .  S
C529        C530   1.548       .  S
C529        C535   1.530       .  S
C529        C533   1.545   1_655  S
C529       C1243   1.535       .  S
C530        H537   1.084       .  S
C530        C531   1.371       .  D
C531        C532   1.533       .  S
C531       C1016   1.481       .  S
C532        C536   1.534       .  S
C532        C534   1.535   1_655  S
C532        H538   1.110       .  S
C533        H539   1.078       .  S
C533        C534   1.361       .  D
C534        C837   1.478       .  S
C535        H540   1.087       .  S
C535        C536   1.361       .  D
C536        C809   1.478       .  S
C541        C542   1.541       .  S
C541        C547   1.522       .  S
C541        C545   1.542       .  S
C541       C1999   1.527       .  S
C542        H549   1.079       .  S
C542        C543   1.361       .  D
C543        C544   1.549       .  S
C543        C904   1.496       .  S
C544        C548   1.557       .  S
C544        C546   1.539       .  S
C544        H550   1.104       .  S
C545        H551   1.085       .  S
C545        C546   1.373       .  D
C546        C977   1.489       .  S
C547        H552   1.085       .  S
C547        C548   1.354       .  D
C548        C795   1.493       .  S
C553        C554   1.550       .  S
C553        C559   1.525       .  S
C553        C557   1.540       .  S
C553       C1789   1.531       .  S
C554        H561   1.082       .  S
C554        C555   1.358       .  D
C555        C556   1.525       .  S
C555        C963   1.466       .  S
C556        C560   1.539       .  S
C556        C558   1.549       .  S
C556        H562   1.111       .  S
C557        H563   1.084       .  S
C557        C558   1.374       .  D
C558        C921   1.494       .  S
C559        H564   1.081       .  S
C559        C560   1.356       .  D
C560        C781   1.480       .  S
C565        C566   1.543   1_655  S
C565        C571   1.526       .  S
C565        C569   1.538       .  S
C565       C1229   1.530       .  S
C566        H573   1.080       .  S
C566        C567   1.365       .  D
C567        C568   1.551   1_455  S
C567        C851   1.491       .  S
C568        C572   1.548       .  S
C568        C570   1.538       .  S
C568        H574   1.110       .  S
C569        H575   1.086       .  S
C569        C570   1.363       .  D
C570       C1005   1.476       .  S
C571        H576   1.086       .  S
C571        C572   1.360       .  D
C572        C767   1.487       .  S
C577        C578   1.549       .  S
C577        C583   1.525       .  S
C577        C581   1.544   1_655  S
C577       C1369   1.532       .  S
C578        H585   1.081       .  S
C578        C579   1.362       .  D
C579        C580   1.538       .  S
C579       C1044   1.481       .  S
C580        C584   1.535       .  S
C580        C582   1.543   1_655  S
C580        H586   1.109       .  S
C581        H587   1.084       .  S
C581        C582   1.374       .  D
C582        C862   1.493       .  S
C583        H588   1.087       .  S
C583        C584   1.355       .  D
C584        C750   1.475       .  S
C589        C590   1.537       .  S
C589        C595   1.530       .  S
C589        C593   1.550       .  S
C589       C1985   1.533       .  S
C590        H597   1.082       .  S
C590        C591   1.369       .  D
C591        C592   1.544       .  S
C591        C991   1.490       .  S
C592        C596   1.537       .  S
C592        C594   1.528       .  S
C592        H598   1.111       .  S
C593        H599   1.079       .  S
C593        C594   1.360       .  D
C594        C893   1.467       .  S
C595        H600   1.087       .  S
C595        C596   1.359       .  D
C596        C736   1.472       .  S
C601        C602   1.539       .  S
C601        C607   1.530       .  S
C601        C605   1.547       .  S
C601       C1772   1.532       .  S
C602        H609   1.082       .  S
C602        C603   1.372       .  D
C603        C604   1.543       .  S
C603        C932   1.485       .  S
C604        C608   1.539       .  S
C604        C606   1.537       .  S
C604        H610   1.110       .  S
C605        H611   1.080       .  S
C605        C606   1.362       .  D
C606        C949   1.488       .  S
C607        H612   1.087       .  S
C607        C608   1.356       .  D
C608        C725   1.474       .  S
O613        C624   1.301       .  A
O613       Eu649   2.535       .  S
O614        C625   1.297       .  A
O614       Eu648   2.502       .  S
O615        C626   1.302       .  A
O615       Eu621   2.533       .  S
O616        C627   1.300       .  A
O616       Eu621   2.515       .  S
O617        C627   1.287       .  A
O617       Eu651   2.426       .  S
O618        C626   1.280       .  A
O618       Eu650   2.376       .  S
O619        C625   1.283       .  A
O619       Eu621   2.405       .  S
O620        C624   1.281       .  A
O620       Eu621   2.386       .  S
Eu621       O631   2.346       .  S
Eu621       O623   2.346       .  S
Eu621       O622   2.372       .  S
Eu621       O629   2.342       .  S
O622       Eu651   2.373       .  S
O622       Eu648   2.376       .  S
O623       Eu649   2.332       .  S
O623       Eu650   2.363       .  S
C624       C1887   1.485       .  S
C625        C739   1.470       .  S
C626       C1215   1.489       .  S
C627       C1551   1.482       .  S
H628        O629   0.959       .  S
O629       Eu650   2.335       .  S
O629       Eu648   2.346       .  S
H630        O631   0.955       .  S
O631       Eu649   2.334       .  S
O631       Eu651   2.337       .  S
O632        C655   1.304       .  A
O632       Eu648   2.543       .  S
O633        C656   1.292       .  A
O633       Eu649   2.469       .  S
O634        C657   1.305       .  A
O634       Eu650   2.543       .  S
O635        C658   1.301       .  A
O635       Eu651   2.519       .  S
O636        C659   1.307       .  A
O636       Eu651   2.556       .  S
O637        C660   1.295       .  A
O637       Eu650   2.490       .  S
O638        C661   1.298       .  A
O638       Eu652   2.503       .  S
O639        C662   1.304       .  A
O639       Eu652   2.534       .  S
O640        C661   1.286       .  A
O640       Eu650   2.424       .  S
O641        C662   1.276       .  A
O641       Eu651   2.377       .  S
O642        C657   1.276       .  A
O642       Eu648   2.383       .  S
O643        C660   1.286       .  A
O643       Eu649   2.429       .  S
O644        C659   1.275       .  A
O644       Eu649   2.372       .  S
O645        C658   1.282       .  A
O645       Eu648   2.399       .  S
O646        C655   1.284       .  A
O646       Eu652   2.404       .  S
O647        C656   1.285       .  A
O647       Eu652   2.420       .  S
Eu648       O666   2.341       .  S
Eu648       O654   2.332       .  S
Eu649       O653   2.357       .  S
Eu649       O664   2.367       .  S
Eu650       O664   2.365       .  S
Eu650       O654   2.327       .  S
Eu651       O653   2.337       .  S
Eu651       O666   2.362       .  S
Eu652       O653   2.337       .  S
Eu652       O664   2.371       .  S
Eu652       O666   2.335       .  S
Eu652       O654   2.350       .  S
C655       C1523   1.497       .  S
C656        C778   1.455       .  S
C657        C792   1.489       .  S
C658       C1187   1.465       .  S
C659        C722   1.504       .  S
C660       C1128   1.470       .  S
C661       C1635   1.477       .  S
C662       C1103   1.487       .  S
H663        O664   0.963       .  S
H665        O666   0.965       .  S
O667        C678   1.302       .  A
O667       Eu703   2.534       .  S
O668        C679   1.294       .  A
O668       Eu702   2.482   1_455  S
O669        C680   1.308       .  A
O669       Eu675   2.561       .  S
O670        C681   1.301       .  A
O670       Eu675   2.527   1_545  S
O671        C681   1.288   1_554  A
O671       Eu705   2.425       .  S
O672        C680   1.278   1_655  A
O672       Eu704   2.382       .  S
O673        C679   1.290       .  A
O673       Eu675   2.443   1_545  S
O674        C678   1.285   1_556  A
O674       Eu675   2.415       .  S
Eu675       O685   2.354   1_566  S
Eu675       O677   2.350   1_556  S
Eu675       O676   2.382   1_565  S
Eu675       O683   2.341   1_455  S
O676       Eu705   2.365   1_556  S
O676       Eu702   2.369   1_455  S
O677       Eu703   2.347       .  S
O677       Eu704   2.366   1_454  S
C678       C1691   1.494       .  S
C679       C1058   1.468       .  S
C680        C823   1.494       .  S
C681       C1604   1.495       .  S
H682        O683   0.975       .  S
O683       Eu704   2.350       .  S
O683       Eu702   2.363   1_565  S
H684        O685   0.982       .  S
O685       Eu703   2.334   1_545  S
O685       Eu705   2.344       .  S
O686        C709   1.302       .  A
O686       Eu702   2.529       .  S
O687        C710   1.293       .  A
O687       Eu703   2.483   1_655  S
O688        C711   1.305       .  A
O688       Eu704   2.550       .  S
O689        C712   1.299   1_455  A
O689       Eu705   2.511   1_556  S
O690        C713   1.300       .  A
O690       Eu705   2.523       .  S
O691        C714   1.298       .  A
O691       Eu704   2.509   1_554  S
O692        C715   1.295       .  A
O692       Eu706   2.490   1_565  S
O693        C716   1.297       .  A
O693       Eu706   2.501       .  S
O694        C715   1.286   1_556  A
O694       Eu704   2.430       .  S
O695        C716   1.285       .  A
O695       Eu705   2.408   1_655  S
O696        C711   1.281   1_545  A
O696       Eu702   2.389       .  S
O697        C714   1.285       .  A
O697       Eu703   2.413   1_655  S
O698        C713   1.283       .  A
O698       Eu703   2.406   1_545  S
O699        C712   1.288       .  A
O699       Eu702   2.433       .  S
O700        C709   1.282   1_554  A
O700       Eu706   2.396       .  S
O701        C710   1.288   1_545  A
O701       Eu706   2.441       .  S
Eu702       O720   2.327   1_556  S
Eu702       O708   2.343       .  S
Eu703       O707   2.357   1_465  S
Eu703       O718   2.374   1_455  S
Eu704       O718   2.371   1_556  S
Eu704       O708   2.336   1_565  S
Eu705       O707   2.352   1_455  S
Eu705       O720   2.348   1_455  S
Eu706       O707   2.348       .  S
Eu706       O718   2.358   1_545  S
Eu706       O720   2.345       .  S
Eu706       O708   2.354   1_554  S
C709       C1576   1.494       .  S
C710       C1156   1.471       .  S
C711       C1145   1.494       .  S
C712        C806   1.489       .  S
C713       C1075   1.484       .  S
C714        C753   1.480       .  S
C715       C1660   1.469       .  S
C716        C764   1.477       .  S
H717        O718   0.965       .  S
H719        O720   0.978       .  S
C721        C722   1.407       .  A
C721        C726   1.410       .  A
C721        H728   1.083       .  S
C722        C723   1.435       .  A
C723        C724   1.393       .  A
C723        N730   1.431       .  S
C724        C725   1.386       .  A
C724        H729   1.085       .  S
C725        C726   1.410       .  A
C726        N727   1.428       .  S
N727        O731   1.261       .  A
N727        O732   1.261       .  A
N730        O734   1.262       .  A
N730        O733   1.262       .  A
C735        C736   1.394       .  A
C735        C740   1.395       .  A
C735        H742   1.084       .  S
C736        C737   1.413       .  A
C737        C738   1.403       .  A
C737        N744   1.427       .  S
C738        C739   1.398       .  A
C738        H743   1.084       .  S
C739        C740   1.415       .  A
C740        N741   1.430       .  S
N741        O745   1.262       .  A
N741        O746   1.262       .  A
N744        O748   1.262       .  A
N744        O747   1.262       .  A
C749        C750   1.407       .  A
C749        C754   1.409       .  A
C749        H756   1.084       .  S
C750        C751   1.402   1_655  A
C751        C752   1.394       .  A
C751        N758   1.429       .  S
C752        C753   1.406   1_455  A
C752        H757   1.081       .  S
C753        C754   1.410       .  A
C754        N755   1.428       .  S
N755        O759   1.262       .  A
N755        O760   1.262       .  A
N758        O762   1.261       .  A
N758        O761   1.262       .  A
C763        C764   1.409       .  A
C763        C768   1.394       .  A
C763        H770   1.084       .  S
C764        C765   1.403       .  A
C765        C766   1.403       .  A
C765        N772   1.428       .  S
C766        C767   1.414       .  A
C766        H771   1.083       .  S
C767        C768   1.404       .  A
C768        N769   1.428   1_655  S
N769        O773   1.260       .  A
N769        O774   1.262   1_455  A
N772        O776   1.262       .  A
N772        O775   1.262       .  A
C777        C778   1.392       .  A
C777        C782   1.392       .  A
C777        H784   1.084       .  S
C778        C779   1.408       .  A
C779        C780   1.398       .  A
C779        N786   1.429       .  S
C780        C781   1.402       .  A
C780        H785   1.084       .  S
C781        C782   1.423       .  A
C782        N783   1.433       .  S
N783        O787   1.261       .  A
N783        O788   1.262       .  A
N786        O790   1.261       .  A
N786        O789   1.262       .  A
C791        C792   1.396       .  A
C791        C796   1.405       .  A
C791        H798   1.084       .  S
C792        C793   1.428       .  A
C793        C794   1.396       .  A
C793        N800   1.429       .  S
C794        C795   1.389       .  A
C794        H799   1.084       .  S
C795        C796   1.424       .  A
C796        N797   1.427       .  S
N797        O801   1.262       .  A
N797        O802   1.263       .  A
N800        O804   1.262       .  A
N800        O803   1.261       .  A
C805        C806   1.409       .  A
C805        C810   1.399       .  A
C805        H812   1.082       .  S
C806        C807   1.410   1_655  A
C807        C808   1.408       .  A
C807        N814   1.427       .  S
C808        C809   1.404   1_455  A
C808        H813   1.083       .  S
C809        C810   1.402       .  A
C810        N811   1.430       .  S
N811        O815   1.261       .  A
N811        O816   1.262       .  A
N814        O818   1.262       .  A
N814        O817   1.262       .  A
C819        C820   1.386   1_655  A
C819        C824   1.390       .  A
C819        H826   1.083       .  S
C820        C821   1.424       .  A
C821        C822   1.412       .  A
C821        N828   1.428       .  S
C822        C823   1.401       .  A
C822        H827   1.084       .  S
C823        C824   1.424   1_455  A
C824        N825   1.424       .  S
N825        O829   1.262       .  A
N825        O830   1.261       .  A
N828        O832   1.262       .  A
N828        O831   1.262       .  A
C833        C834   1.395       .  A
C833        C838   1.396       .  A
C833        H840   1.084       .  S
C834        C835   1.402       .  A
C835        C836   1.391       .  A
C835        N842   1.428       .  S
C836        C837   1.403       .  A
C836        H841   1.083       .  S
C837        C838   1.419       .  A
C838        N839   1.431       .  S
N839        O843   1.261       .  A
N839        O844   1.262       .  A
N842        O846   1.262       .  A
N842        O845   1.261       .  A
C847        C848   1.408       .  A
C847        C852   1.402       .  A
C847        H854   1.084       .  S
C848        C849   1.420       .  A
C849        C850   1.407       .  A
C849        N856   1.429       .  S
C850        C851   1.402       .  A
C850        H855   1.082       .  S
C851        C852   1.412       .  A
C852        N853   1.430       .  S
N853        O857   1.261       .  A
N853        O858   1.262       .  A
N856        O860   1.262       .  A
N856        O859   1.262       .  A
C861        C862   1.403       .  A
C861        C866   1.403       .  A
C861        H868   1.084       .  S
C862        C863   1.414       .  A
C863        C864   1.401       .  A
C863        N870   1.428       .  S
C864        C865   1.406       .  A
C864        H869   1.084       .  S
C865        C866   1.419       .  A
C866        N867   1.429       .  S
N867        O871   1.262       .  A
N867        O872   1.262       .  A
N870        O874   1.261   1_455  A
N870        O873   1.262   1_455  A
C875        C876   1.398       .  A
C875        C880   1.394       .  A
C875        H882   1.085       .  S
C876        C877   1.404       .  A
C877        C878   1.396       .  A
C877        N884   1.428       .  S
C878        C879   1.412       .  A
C878        H883   1.082       .  S
C879        C880   1.424       .  A
C880        N881   1.429       .  S
N881        O885   1.261       .  A
N881        O886   1.263       .  A
N884        O888   1.262       .  A
N884        O887   1.262       .  A
C889        C890   1.404       .  A
C889        C894   1.391       .  A
C889        H896   1.084       .  S
C890        C891   1.413       .  A
C891        C892   1.396       .  A
C891        N898   1.430       .  S
C892        C893   1.401       .  A
C892        H897   1.083       .  S
C893        C894   1.404       .  A
C894        N895   1.427       .  S
N895        O899   1.261       .  A
N895        O900   1.262       .  A
N898        O902   1.262       .  A
N898        O901   1.262       .  A
C903        C904   1.404       .  A
C903        C908   1.410       .  A
C903        H910   1.083       .  S
C904        C905   1.421       .  A
C905        C906   1.400       .  A
C905        N912   1.432       .  S
C906        C907   1.397       .  A
C906        H911   1.084       .  S
C907        C908   1.413       .  A
C908        N909   1.429       .  S
N909        O913   1.262       .  A
N909        O914   1.262       .  A
N912        O916   1.261       .  A
N912        O915   1.262       .  A
C917        C918   1.409       .  A
C917        C922   1.402       .  A
C917        H924   1.083       .  S
C918        C919   1.419       .  A
C919        C920   1.405       .  A
C919        N926   1.429       .  S
C920        C921   1.404       .  A
C920        H925   1.083       .  S
C921        C922   1.411       .  A
C922        N923   1.428       .  S
N923        O927   1.262       .  A
N923        O928   1.262       .  A
N926        O930   1.262       .  A
N926        O929   1.262       .  A
C931        C932   1.406       .  A
C931        C936   1.394       .  A
C931        H938   1.082       .  S
C932        C933   1.417       .  A
C933        C934   1.399       .  A
C933        N940   1.429       .  S
C934        C935   1.397       .  A
C934        H939   1.084       .  S
C935        C936   1.403       .  A
C936        N937   1.429       .  S
N937        O941   1.262       .  A
N937        O942   1.262       .  A
N940        O944   1.261       .  A
N940        O943   1.262       .  A
C945        C946   1.409       .  A
C945        C950   1.405       .  A
C945        H952   1.083       .  S
C946        C947   1.419       .  A
C947        C948   1.402       .  A
C947        N954   1.429       .  S
C948        C949   1.401       .  A
C948        H953   1.084       .  S
C949        C950   1.409       .  A
C950        N951   1.428       .  S
N951        O955   1.262       .  A
N951        O956   1.261       .  A
N954        O958   1.262       .  A
N954        O957   1.262       .  A
C959        C960   1.398       .  A
C959        C964   1.390       .  A
C959        H966   1.084       .  S
C960        C961   1.415       .  A
C961        C962   1.400       .  A
C961        N968   1.430       .  S
C962        C963   1.399       .  A
C962        H967   1.084       .  S
C963        C964   1.404       .  A
C964        N965   1.423       .  S
N965        O969   1.262       .  A
N965        O970   1.262       .  A
N968        O972   1.262       .  A
N968        O971   1.262       .  A
C973        C974   1.404       .  A
C973        C978   1.397       .  A
C973        H980   1.084       .  S
C974        C975   1.414       .  A
C975        C976   1.401       .  A
C975        N982   1.430       .  S
C976        C977   1.406       .  A
C976        H981   1.084       .  S
C977        C978   1.416       .  A
C978        N979   1.430       .  S
N979        O983   1.262       .  A
N979        O984   1.261       .  A
N982        O986   1.262       .  A
N982        O985   1.262       .  A
C987        C988   1.397       .  A
C987        C992   1.399       .  A
C987        H994   1.084       .  S
C988        C989   1.410       .  A
C989        C990   1.405       .  A
C989        N996   1.429       .  S
C990        C991   1.405       .  A
C990        H995   1.084       .  S
C991        C992   1.417       .  A
C992        N993   1.430       .  S
N993        O997   1.262       .  A
N993        O998   1.261       .  A
N996       O1000   1.261       .  A
N996        O999   1.262       .  A
C1001      C1002   1.406       .  A
C1001      C1006   1.401       .  A
C1001      H1008   1.084       .  S
C1002      C1003   1.416       .  A
C1003      C1004   1.401       .  A
C1003      N1010   1.429       .  S
C1004      C1005   1.399       .  A
C1004      H1009   1.083       .  S
C1005      C1006   1.406       .  A
C1006      N1007   1.429       .  S
N1007      O1011   1.262       .  A
N1007      O1012   1.262       .  A
N1010      O1014   1.262       .  A
N1010      O1013   1.262       .  A
C1015      C1016   1.397       .  A
C1015      C1020   1.401       .  A
C1015      H1022   1.084       .  S
C1016      C1017   1.411       .  A
C1017      C1018   1.398       .  A
C1017      N1024   1.426       .  S
C1018      C1019   1.402       .  A
C1018      H1023   1.084       .  S
C1019      C1020   1.419       .  A
C1020      N1021   1.428       .  S
N1021      O1025   1.261       .  A
N1021      O1026   1.262       .  A
N1024      O1028   1.262       .  A
N1024      O1027   1.261       .  A
C1029      C1030   1.399       .  A
C1029      C1034   1.404       .  A
C1029      H1036   1.084       .  S
C1030      C1031   1.415       .  A
C1031      C1032   1.401       .  A
C1031      N1038   1.432       .  S
C1032      C1033   1.402       .  A
C1032      H1037   1.084       .  S
C1033      C1034   1.418       .  A
C1034      N1035   1.430       .  S
N1035      O1039   1.261       .  A
N1035      O1040   1.262       .  A
N1038      O1042   1.262       .  A
N1038      O1041   1.262       .  A
C1043      C1044   1.401       .  A
C1043      C1048   1.394       .  A
C1043      H1050   1.084       .  S
C1044      C1045   1.418       .  A
C1045      C1046   1.400       .  A
C1045      N1052   1.430       .  S
C1046      C1047   1.398       .  A
C1046      H1051   1.084       .  S
C1047      C1048   1.404       .  A
C1048      N1049   1.426       .  S
N1049      O1053   1.262       .  A
N1049      O1054   1.261       .  A
N1052      O1056   1.261       .  A
N1052      O1055   1.262       .  A
C1057      C1058   1.403   1_565  A
C1057      C1062   1.402       .  A
C1057      H1064   1.084       .  S
C1058      C1059   1.405       .  A
C1059      C1060   1.398       .  A
C1059      N1066   1.428       .  S
C1060      C1061   1.402       .  A
C1060      H1065   1.083       .  S
C1061      C1062   1.408   1_545  A
C1062      N1063   1.428       .  S
N1063      O1067   1.261       .  A
N1063      O1068   1.262       .  A
N1066      O1070   1.261       .  A
N1066      O1069   1.261       .  A
C1071      C1072   1.403       .  A
C1071      C1076   1.393       .  A
C1071      H1078   1.084   1_545  S
C1072      C1073   1.415       .  A
C1073      C1074   1.417       .  A
C1073      N1080   1.428       .  S
C1074      C1075   1.407       .  A
C1074      H1079   1.083       .  S
C1075      C1076   1.410       .  A
C1076      N1077   1.430   1_545  S
N1077      O1081   1.262   1_565  A
N1077      O1082   1.261       .  A
N1080      O1084   1.262       .  A
N1080      O1083   1.262       .  A
C1085      C1086   1.398       .  A
C1085      C1090   1.389       .  A
C1085      H1092   1.084       .  S
C1086      C1087   1.412       .  A
C1087      C1088   1.398       .  A
C1087      N1094   1.431       .  S
C1088      C1089   1.411       .  A
C1088      H1093   1.075       .  S
C1089      C1090   1.419       .  A
C1090      N1091   1.429       .  S
N1091      O1095   1.261       .  A
N1091      O1096   1.261       .  A
N1094      O1098   1.262       .  A
N1094      O1097   1.262       .  A
C1099      C1100   1.390       .  A
C1099      C1104   1.393       .  A
C1099      H1106   1.085       .  S
C1100      C1101   1.418       .  A
C1101      C1102   1.402       .  A
C1101      N1108   1.426       .  S
C1102      C1103   1.397       .  A
C1102      H1107   1.084       .  S
C1103      C1104   1.430       .  A
C1104      N1105   1.432       .  S
N1105      O1109   1.262       .  A
N1105      O1110   1.262       .  A
N1108      O1112   1.260       .  A
N1108      O1111   1.261       .  A
C1113      C1114   1.409       .  A
C1113      C1118   1.403       .  A
C1113      H1120   1.080       .  S
C1114      C1115   1.425       .  A
C1115      C1116   1.404       .  A
C1115      N1122   1.432       .  S
C1116      C1117   1.404       .  A
C1116      H1121   1.083       .  S
C1117      C1118   1.417       .  A
C1118      N1119   1.429       .  S
N1119      O1123   1.262       .  A
N1119      O1124   1.262       .  A
N1122      O1126   1.261       .  A
N1122      O1125   1.263       .  A
C1127      C1128   1.404       .  A
C1127      C1132   1.406       .  A
C1127      H1134   1.084       .  S
C1128      C1129   1.406       .  A
C1129      C1130   1.396       .  A
C1129      N1136   1.429       .  S
C1130      C1131   1.406       .  A
C1130      H1135   1.083       .  S
C1131      C1132   1.411       .  A
C1132      N1133   1.427       .  S
N1133      O1137   1.262       .  A
N1133      O1138   1.261       .  A
N1136      O1140   1.262       .  A
N1136      O1139   1.262       .  A
C1141      C1142   1.416       .  A
C1141      C1146   1.413       .  A
C1141      H1148   1.083       .  S
C1142      C1143   1.403   1_565  A
C1143      C1144   1.396   1_545  A
C1143      N1150   1.430       .  S
C1144      C1145   1.414       .  A
C1144      H1149   1.084   1_565  S
C1145      C1146   1.405       .  A
C1146      N1147   1.428       .  S
N1147      O1151   1.261       .  A
N1147      O1152   1.262       .  A
N1150      O1154   1.262       .  A
N1150      O1153   1.262       .  A
C1155      C1156   1.396       .  A
C1155      C1160   1.399       .  A
C1155      H1162   1.084       .  S
C1156      C1157   1.408   1_565  A
C1157      C1158   1.404       .  A
C1157      N1164   1.426       .  S
C1158      C1159   1.401   1_545  A
C1158      H1163   1.083       .  S
C1159      C1160   1.418       .  A
C1160      N1161   1.430       .  S
N1161      O1165   1.262       .  A
N1161      O1166   1.262       .  A
N1164      O1168   1.261   1_655  A
N1164      O1167   1.261       .  A
C1169      C1170   1.411       .  A
C1169      C1174   1.399       .  A
C1169      H1176   1.080       .  S
C1170      C1171   1.419       .  A
C1171      C1172   1.404       .  A
C1171      N1178   1.432       .  S
C1172      C1173   1.409       .  A
C1172      H1177   1.083       .  S
C1173      C1174   1.414       .  A
C1174      N1175   1.429       .  S
N1175      O1179   1.261       .  A
N1175      O1180   1.261       .  A
N1178      O1182   1.262       .  A
N1178      O1181   1.262       .  A
C1183      C1184   1.398       .  A
C1183      C1188   1.401       .  A
C1183      H1190   1.084       .  S
C1184      C1185   1.417       .  A
C1185      C1186   1.399       .  A
C1185      N1192   1.436       .  S
C1186      C1187   1.398       .  A
C1186      H1191   1.084       .  S
C1187      C1188   1.416       .  A
C1188      N1189   1.433       .  S
N1189      O1193   1.262       .  A
N1189      O1194   1.262       .  A
N1192      O1196   1.262       .  A
N1192      O1195   1.262       .  A
C1197      C1198   1.409       .  A
C1197      C1202   1.397       .  A
C1197      H1204   1.076       .  S
C1198      C1199   1.427       .  A
C1199      C1200   1.400       .  A
C1199      N1206   1.430       .  S
C1200      C1201   1.396       .  A
C1200      H1205   1.084       .  S
C1201      C1202   1.412       .  A
C1202      N1203   1.428       .  S
N1203      O1207   1.261       .  A
N1203      O1208   1.262       .  A
N1206      O1210   1.262       .  A
N1206      O1209   1.261       .  A
C1211      C1212   1.412       .  A
C1211      C1216   1.417       .  A
C1211      H1218   1.083       .  S
C1212      C1213   1.404       .  A
C1213      C1214   1.391       .  A
C1213      N1220   1.432       .  S
C1214      C1215   1.408       .  A
C1214      H1219   1.084       .  S
C1215      C1216   1.412       .  A
C1216      N1217   1.429       .  S
N1217      O1221   1.262       .  A
N1217      O1222   1.262       .  A
N1220      O1224   1.261       .  A
N1220      O1223   1.261       .  A
C1225      C1226   1.402       .  A
C1225      C1230   1.394       .  A
C1225      H1232   1.084       .  S
C1226      C1227   1.411   1_655  A
C1227      C1228   1.398       .  A
C1227      N1234   1.430       .  S
C1228      C1229   1.410   1_455  A
C1228      H1233   1.075       .  S
C1229      C1230   1.420       .  A
C1230      N1231   1.432       .  S
N1231      O1235   1.262       .  A
N1231      O1236   1.262       .  A
N1234      O1238   1.262       .  A
N1234      O1237   1.262       .  A
C1239      C1240   1.407       .  A
C1239      C1244   1.401       .  A
C1239      H1246   1.083       .  S
C1240      C1241   1.413   1_655  A
C1241      C1242   1.395       .  A
C1241      N1248   1.430       .  S
C1242      C1243   1.412   1_455  A
C1242      H1247   1.079       .  S
C1243      C1244   1.417       .  A
C1244      N1245   1.429       .  S
N1245      O1249   1.262       .  A
N1245      O1250   1.262       .  A
N1248      O1252   1.262       .  A
N1248      O1251   1.262       .  A
C1253      C1254   1.400       .  A
C1253      C1258   1.405       .  A
C1253      H1260   1.082       .  S
C1254      C1255   1.414       .  A
C1255      C1256   1.408       .  A
C1255      N1262   1.430       .  S
C1256      C1257   1.404       .  A
C1256      H1261   1.084       .  S
C1257      C1258   1.413       .  A
C1258      N1259   1.428       .  S
N1259      O1263   1.262       .  A
N1259      O1264   1.261       .  A
N1262      O1266   1.262       .  A
N1262      O1265   1.261       .  A
C1267      C1268   1.403       .  A
C1267      C1272   1.400       .  A
C1267      H1274   1.084       .  S
C1268      C1269   1.411       .  A
C1269      C1270   1.397       .  A
C1269      N1276   1.426       .  S
C1270      C1271   1.405       .  A
C1270      H1275   1.084       .  S
C1271      C1272   1.417       .  A
C1272      N1273   1.429       .  S
N1273      O1277   1.262       .  A
N1273      O1278   1.262       .  A
N1276      O1280   1.261       .  A
N1276      O1279   1.261       .  A
C1281      C1282   1.397       .  A
C1281      C1286   1.396       .  A
C1281      H1288   1.084       .  S
C1282      C1283   1.406       .  A
C1283      C1284   1.399       .  A
C1283      N1290   1.429       .  S
C1284      C1285   1.404       .  A
C1284      H1289   1.084       .  S
C1285      C1286   1.414       .  A
C1286      N1287   1.430       .  S
N1287      O1291   1.262       .  A
N1287      O1292   1.262       .  A
N1290      O1294   1.262       .  A
N1290      O1293   1.262       .  A
C1295      C1296   1.404       .  A
C1295      C1300   1.410       .  A
C1295      H1302   1.082       .  S
C1296      C1297   1.414       .  A
C1297      C1298   1.404       .  A
C1297      N1304   1.430       .  S
C1298      C1299   1.410       .  A
C1298      H1303   1.083       .  S
C1299      C1300   1.421       .  A
C1300      N1301   1.428       .  S
N1301      O1305   1.262       .  A
N1301      O1306   1.262       .  A
N1304      O1308   1.262       .  A
N1304      O1307   1.262       .  A
C1309      C1310   1.400       .  A
C1309      C1314   1.403       .  A
C1309      H1316   1.082       .  S
C1310      C1311   1.407       .  A
C1311      C1312   1.401       .  A
C1311      N1318   1.428       .  S
C1312      C1313   1.408       .  A
C1312      H1317   1.084       .  S
C1313      C1314   1.418       .  A
C1314      N1315   1.429       .  S
N1315      O1319   1.262       .  A
N1315      O1320   1.262       .  A
N1318      O1322   1.261       .  A
N1318      O1321   1.261       .  A
C1323      C1324   1.408       .  A
C1323      C1328   1.411       .  A
C1323      H1330   1.083       .  S
C1324      C1325   1.424       .  A
C1325      C1326   1.402       .  A
C1325      N1332   1.430       .  S
C1326      C1327   1.402       .  A
C1326      H1331   1.084       .  S
C1327      C1328   1.418       .  A
C1328      N1329   1.428       .  S
N1329      O1333   1.261       .  A
N1329      O1334   1.262       .  A
N1332      O1336   1.261       .  A
N1332      O1335   1.261       .  A
C1337      C1338   1.398       .  A
C1337      C1342   1.403       .  A
C1337      H1344   1.085       .  S
C1338      C1339   1.407       .  A
C1339      C1340   1.405       .  A
C1339      N1346   1.427       .  S
C1340      C1341   1.407       .  A
C1340      H1345   1.082       .  S
C1341      C1342   1.423       .  A
C1342      N1343   1.429       .  S
N1343      O1347   1.261       .  A
N1343      O1348   1.262       .  A
N1346      O1350   1.262       .  A
N1346      O1349   1.261       .  A
C1351      C1352   1.405       .  A
C1351      C1356   1.404       .  A
C1351      H1358   1.084       .  S
C1352      C1353   1.412       .  A
C1353      C1354   1.399       .  A
C1353      N1360   1.428       .  S
C1354      C1355   1.405       .  A
C1354      H1359   1.083       .  S
C1355      C1356   1.416       .  A
C1356      N1357   1.429       .  S
N1357      O1361   1.262       .  A
N1357      O1362   1.262       .  A
N1360      O1364   1.262       .  A
N1360      O1363   1.262       .  A
C1365      C1366   1.407   1_455  A
C1365      C1370   1.404       .  A
C1365      H1372   1.084       .  S
C1366      C1367   1.412       .  A
C1367      C1368   1.392       .  A
C1367      N1374   1.427       .  S
C1368      C1369   1.408       .  A
C1368      H1373   1.078       .  S
C1369      C1370   1.419   1_655  A
C1370      N1371   1.429       .  S
N1371      O1375   1.262       .  A
N1371      O1376   1.262       .  A
N1374      O1378   1.260       .  A
N1374      O1377   1.261       .  A
C1379      C1380   1.400       .  A
C1379      C1384   1.397       .  A
C1379      H1386   1.084       .  S
C1380      C1381   1.408   1_655  A
C1381      C1382   1.391       .  A
C1381      N1388   1.426       .  S
C1382      C1383   1.405   1_455  A
C1382      H1387   1.077       .  S
C1383      C1384   1.422       .  A
C1384      N1385   1.432       .  S
N1385      O1389   1.262       .  A
N1385      O1390   1.262       .  A
N1388      O1392   1.261       .  A
N1388      O1391   1.262       .  A
C1393      C1394   1.403       .  A
C1393      C1398   1.395       .  A
C1393      H1400   1.084       .  S
C1394      C1395   1.416       .  A
C1395      C1396   1.400       .  A
C1395      N1402   1.426       .  S
C1396      C1397   1.396       .  A
C1396      H1401   1.084       .  S
C1397      C1398   1.404       .  A
C1398      N1399   1.426       .  S
N1399      O1403   1.261       .  A
N1399      O1404   1.261       .  A
N1402      O1406   1.261       .  A
N1402      O1405   1.262       .  A
C1407      C1408   1.409       .  A
C1407      C1412   1.398       .  A
C1407      H1414   1.081       .  S
C1408      C1409   1.418       .  A
C1409      C1410   1.404       .  A
C1409      N1416   1.429       .  S
C1410      C1411   1.404       .  A
C1410      H1415   1.084       .  S
C1411      C1412   1.407       .  A
C1412      N1413   1.429       .  S
N1413      O1417   1.262       .  A
N1413      O1418   1.262       .  A
N1416      O1420   1.262       .  A
N1416      O1419   1.262       .  A
C1421      C1422   1.402       .  A
C1421      C1426   1.406       .  A
C1421      H1428   1.084       .  S
C1422      C1423   1.400       .  A
C1423      C1424   1.395       .  A
C1423      N1430   1.430       .  S
C1424      C1425   1.414       .  A
C1424      H1429   1.083       .  S
C1425      C1426   1.416       .  A
C1426      N1427   1.429       .  S
N1427      O1431   1.261       .  A
N1427      O1432   1.261       .  A
N1430      O1434   1.262       .  A
N1430      O1433   1.262       .  A
C1435      C1436   1.397       .  A
C1435      C1440   1.395       .  A
C1435      H1442   1.083       .  S
C1436      C1437   1.407       .  A
C1437      C1438   1.396       .  A
C1437      N1444   1.428       .  S
C1438      C1439   1.407       .  A
C1438      H1443   1.083       .  S
C1439      C1440   1.419       .  A
C1440      N1441   1.430       .  S
N1441      O1445   1.262       .  A
N1441      O1446   1.261       .  A
N1444      O1448   1.262       .  A
N1444      O1447   1.262       .  A
C1449      C1450   1.406       .  A
C1449      C1454   1.409       .  A
C1449      H1456   1.084       .  S
C1450      C1451   1.405       .  A
C1451      C1452   1.402       .  A
C1451      N1458   1.429       .  S
C1452      C1453   1.410       .  A
C1452      H1457   1.084       .  S
C1453      C1454   1.409       .  A
C1454      N1455   1.428       .  S
N1455      O1459   1.262       .  A
N1455      O1460   1.262       .  A
N1458      O1462   1.261       .  A
N1458      O1461   1.261       .  A
C1463      C1464   1.405       .  A
C1463      C1468   1.398       .  A
C1463      H1470   1.084       .  S
C1464      C1465   1.412       .  A
C1465      C1466   1.395       .  A
C1465      N1472   1.429       .  S
C1466      C1467   1.395       .  A
C1466      H1471   1.080       .  S
C1467      C1468   1.403       .  A
C1468      N1469   1.426       .  S
N1469      O1473   1.261       .  A
N1469      O1474   1.262   1_565  A
N1472      O1476   1.262       .  A
N1472      O1475   1.261       .  A
C1477      C1478   1.400       .  A
C1477      C1482   1.401       .  A
C1477      H1484   1.084       .  S
C1478      C1479   1.407       .  A
C1479      C1480   1.399       .  A
C1479      N1486   1.429       .  S
C1480      C1481   1.404       .  A
C1480      H1485   1.084       .  S
C1481      C1482   1.416       .  A
C1482      N1483   1.429       .  S
N1483      O1487   1.261       .  A
N1483      O1488   1.262       .  A
N1486      O1490   1.262       .  A
N1486      O1489   1.262       .  A
C1491      C1492   1.408       .  A
C1491      C1496   1.402       .  A
C1491      H1498   1.083       .  S
C1492      C1493   1.418       .  A
C1493      C1494   1.403       .  A
C1493      N1500   1.430       .  S
C1494      C1495   1.405       .  A
C1494      H1499   1.080       .  S
C1495      C1496   1.414       .  A
C1496      N1497   1.429       .  S
N1497      O1501   1.261       .  A
N1497      O1502   1.262       .  A
N1500      O1504   1.262       .  A
N1500      O1503   1.262       .  A
C1505      C1506   1.402       .  A
C1505      C1510   1.408       .  A
C1505      H1512   1.081       .  S
C1506      C1507   1.404       .  A
C1507      C1508   1.395       .  A
C1507      N1514   1.429       .  S
C1508      C1509   1.413       .  A
C1508      H1513   1.081       .  S
C1509      C1510   1.422       .  A
C1510      N1511   1.434       .  S
N1511      O1515   1.262       .  A
N1511      O1516   1.262       .  A
N1514      O1518   1.261       .  A
N1514      O1517   1.262       .  A
C1519      C1520   1.413       .  A
C1519      C1524   1.409       .  A
C1519      H1526   1.084       .  S
C1520      C1521   1.402       .  A
C1521      C1522   1.400       .  A
C1521      N1528   1.428       .  S
C1522      C1523   1.416       .  A
C1522      H1527   1.083       .  S
C1523      C1524   1.409       .  A
C1524      N1525   1.428       .  S
N1525      O1529   1.262       .  A
N1525      O1530   1.262       .  A
N1528      O1532   1.261       .  A
N1528      O1531   1.262       .  A
C1533      C1534   1.420       .  A
C1533      C1538   1.402       .  A
C1533      H1540   1.074       .  S
C1534      C1535   1.422       .  A
C1535      C1536   1.404       .  A
C1535      N1542   1.429       .  S
C1536      C1537   1.399       .  A
C1536      H1541   1.085       .  S
C1537      C1538   1.399       .  A
C1538      N1539   1.429       .  S
N1539      O1543   1.261       .  A
N1539      O1544   1.262       .  A
N1542      O1546   1.262       .  A
N1542      O1545   1.262       .  A
C1547      C1548   1.395       .  A
C1547      C1552   1.398       .  A
C1547      H1554   1.084       .  S
C1548      C1549   1.408       .  A
C1549      C1550   1.406       .  A
C1549      N1556   1.428       .  S
C1550      C1551   1.403       .  A
C1550      H1555   1.083       .  S
C1551      C1552   1.417       .  A
C1552      N1553   1.430       .  S
N1553      O1557   1.262       .  A
N1553      O1558   1.262       .  A
N1556      O1560   1.262       .  A
N1556      O1559   1.262       .  A
C1561      C1562   1.404       .  A
C1561      C1566   1.387       .  A
C1561      H1568   1.078       .  S
C1562      C1563   1.419   1_556  A
C1563      C1564   1.398       .  A
C1563      N1570   1.430       .  S
C1564      C1565   1.402   1_554  A
C1564      H1569   1.084       .  S
C1565      C1566   1.414       .  A
C1566      N1567   1.429       .  S
N1567      O1571   1.260       .  A
N1567      O1572   1.260       .  A
N1570      O1574   1.262       .  A
N1570      O1573   1.262       .  A
C1575      C1576   1.416   1_554  A
C1575      C1580   1.397       .  A
C1575      H1582   1.084       .  S
C1576      C1577   1.409       .  A
C1577      C1578   1.406       .  A
C1577      N1584   1.427       .  S
C1578      C1579   1.409       .  A
C1578      H1583   1.084       .  S
C1579      C1580   1.401   1_556  A
C1580      N1581   1.429       .  S
N1581      O1585   1.262       .  A
N1581      O1586   1.262       .  A
N1584      O1588   1.261       .  A
N1584      O1587   1.262       .  A
C1589      C1590   1.402   1_556  A
C1589      C1594   1.403       .  A
C1589      H1596   1.084       .  S
C1590      C1591   1.419       .  A
C1591      C1592   1.402       .  A
C1591      N1598   1.430       .  S
C1592      C1593   1.408       .  A
C1592      H1597   1.078       .  S
C1593      C1594   1.425   1_554  A
C1594      N1595   1.430       .  S
N1595      O1599   1.262       .  A
N1595      O1600   1.262       .  A
N1598      O1602   1.261       .  A
N1598      O1601   1.262       .  A
C1603      C1604   1.410   1_554  A
C1603      C1608   1.394       .  A
C1603      H1610   1.084       .  S
C1604      C1605   1.414       .  A
C1605      C1606   1.414       .  A
C1605      N1612   1.427       .  S
C1606      C1607   1.406       .  A
C1606      H1611   1.084       .  S
C1607      C1608   1.405   1_556  A
C1608      N1609   1.434       .  S
N1609      O1613   1.262       .  A
N1609      O1614   1.261       .  A
N1612      O1616   1.261       .  A
N1612      O1615   1.261       .  A
C1617      C1618   1.411       .  A
C1617      C1622   1.400       .  A
C1617      H1624   1.075       .  S
C1618      C1619   1.422       .  A
C1619      C1620   1.409       .  A
C1619      N1626   1.430       .  S
C1620      C1621   1.406       .  A
C1620      H1625   1.084       .  S
C1621      C1622   1.414       .  A
C1622      N1623   1.429       .  S
N1623      O1627   1.261       .  A
N1623      O1628   1.262       .  A
N1626      O1630   1.262       .  A
N1626      O1629   1.262       .  A
C1631      C1632   1.409       .  A
C1631      C1636   1.407       .  A
C1631      H1638   1.084       .  S
C1632      C1633   1.410       .  A
C1633      C1634   1.402       .  A
C1633      N1640   1.429       .  S
C1634      C1635   1.404       .  A
C1634      H1639   1.085       .  S
C1635      C1636   1.406       .  A
C1636      N1637   1.428       .  S
N1637      O1641   1.262       .  A
N1637      O1642   1.261       .  A
N1640      O1644   1.262       .  A
N1640      O1643   1.262       .  A
C1645      C1646   1.402   1_556  A
C1645      C1650   1.402       .  A
C1645      H1652   1.082       .  S
C1646      C1647   1.408       .  A
C1647      C1648   1.394       .  A
C1647      N1654   1.428       .  S
C1648      C1649   1.410   1_554  A
C1648      H1653   1.073       .  S
C1649      C1650   1.421       .  A
C1650      N1651   1.430       .  S
N1651      O1655   1.262       .  A
N1651      O1656   1.262       .  A
N1654      O1658   1.260       .  A
N1654      O1657   1.262       .  A
C1659      C1660   1.399       .  A
C1659      C1664   1.400       .  A
C1659      H1666   1.084       .  S
C1660      C1661   1.414   1_554  A
C1661      C1662   1.402       .  A
C1661      N1668   1.431       .  S
C1662      C1663   1.398   1_556  A
C1662      H1667   1.084       .  S
C1663      C1664   1.415       .  A
C1664      N1665   1.430       .  S
N1665      O1669   1.262       .  A
N1665      O1670   1.262       .  A
N1668      O1672   1.262   1_565  A
N1668      O1671   1.262       .  A
C1673      C1674   1.408   1_554  A
C1673      C1678   1.394       .  A
C1673      H1680   1.074       .  S
C1674      C1675   1.425       .  A
C1675      C1676   1.403       .  A
C1675      N1682   1.432       .  S
C1676      C1677   1.400       .  A
C1676      H1681   1.084       .  S
C1677      C1678   1.409   1_556  A
C1678      N1679   1.430       .  S
N1679      O1683   1.262       .  A
N1679      O1684   1.262       .  A
N1682      O1686   1.262       .  A
N1682      O1685   1.262       .  A
C1687      C1688   1.417       .  A
C1687      C1692   1.409       .  A
C1687      H1694   1.083       .  S
C1688      C1689   1.412       .  A
C1689      C1690   1.402       .  A
C1689      N1696   1.427   1_554  S
C1690      C1691   1.409       .  A
C1690      H1695   1.085   1_554  S
C1691      C1692   1.406       .  A
C1692      N1693   1.427       .  S
N1693      O1697   1.261       .  A
N1693      O1698   1.262       .  A
N1696      O1700   1.262       .  A
N1696      O1699   1.262       .  A
C1701      C1702   1.413   1_565  A
C1701      C1706   1.401       .  A
C1701      H1708   1.076       .  S
C1702      C1703   1.419       .  A
C1703      C1704   1.397       .  A
C1703      N1710   1.431       .  S
C1704      C1705   1.404       .  A
C1704      H1709   1.084       .  S
C1705      C1706   1.412   1_545  A
C1706      N1707   1.430       .  S
N1707      O1711   1.262       .  A
N1707      O1712   1.262       .  A
N1710      O1714   1.262       .  A
N1710      O1713   1.262       .  A
C1715      C1716   1.405       .  A
C1715      C1720   1.407       .  A
C1715      H1722   1.083       .  S
C1716      C1717   1.410   1_545  A
C1717      C1718   1.396       .  A
C1717      N1724   1.427       .  S
C1718      C1719   1.410   1_565  A
C1718      H1723   1.076       .  S
C1719      C1720   1.423       .  A
C1720      N1721   1.432       .  S
N1721      O1725   1.262       .  A
N1721      O1726   1.262       .  A
N1724      O1728   1.261       .  A
N1724      O1727   1.261       .  A
C1729      C1730   1.406       .  A
C1729      C1734   1.409       .  A
C1729      H1736   1.083       .  S
C1730      C1731   1.414       .  A
C1731      C1732   1.402       .  A
C1731      N1738   1.430       .  S
C1732      C1733   1.409       .  A
C1732      H1737   1.083       .  S
C1733      C1734   1.420       .  A
C1734      N1735   1.429       .  S
N1735      O1739   1.262       .  A
N1735      O1740   1.262       .  A
N1738      O1742   1.261       .  A
N1738      O1741   1.262       .  A
C1743      C1744   1.402       .  A
C1743      C1748   1.393       .  A
C1743      H1750   1.084       .  S
C1744      C1745   1.419       .  A
C1745      C1746   1.402       .  A
C1745      N1752   1.430       .  S
C1746      C1747   1.399       .  A
C1746      H1751   1.084       .  S
C1747      C1748   1.406       .  A
C1748      N1749   1.425       .  S
N1749      O1753   1.261       .  A
N1749      O1754   1.261       .  A
N1752      O1756   1.262       .  A
N1752      O1755   1.262       .  A
C1757      C1758   1.403       .  A
C1757      C1762   1.406       .  A
C1757      H1764   1.084       .  S
C1758      C1759   1.408       .  A
C1759      C1760   1.400       .  A
C1759      N1766   1.429       .  S
C1760      C1761   1.403       .  A
C1760      H1765   1.084       .  S
C1761      C1762   1.413       .  A
C1762      N1763   1.432       .  S
N1763      O1767   1.262       .  A
N1763      O1768   1.262       .  A
N1766      O1770   1.261       .  A
N1766      O1769   1.262       .  A
C1771      C1772   1.413       .  A
C1771      C1776   1.397       .  A
C1771      H1778   1.074       .  S
C1772      C1773   1.420       .  A
C1773      C1774   1.393       .  A
C1773      N1780   1.430       .  S
C1774      C1775   1.399       .  A
C1774      H1779   1.084       .  S
C1775      C1776   1.408       .  A
C1776      N1777   1.429       .  S
N1777      O1781   1.262       .  A
N1777      O1782   1.262       .  A
N1780      O1784   1.262       .  A
N1780      O1783   1.262       .  A
C1785      C1786   1.404       .  A
C1785      C1790   1.401       .  A
C1785      H1792   1.084       .  S
C1786      C1787   1.410       .  A
C1787      C1788   1.393       .  A
C1787      N1794   1.429       .  S
C1788      C1789   1.410       .  A
C1788      H1793   1.076       .  S
C1789      C1790   1.420       .  A
C1790      N1791   1.430       .  S
N1791      O1795   1.262       .  A
N1791      O1796   1.262       .  A
N1794      O1798   1.261       .  A
N1794      O1797   1.262       .  A
C1799      C1800   1.398       .  A
C1799      C1804   1.399       .  A
C1799      H1806   1.084       .  S
C1800      C1801   1.409       .  A
C1801      C1802   1.400       .  A
C1801      N1808   1.426       .  S
C1802      C1803   1.405       .  A
C1802      H1807   1.084       .  S
C1803      C1804   1.419       .  A
C1804      N1805   1.428       .  S
N1805      O1809   1.261       .  A
N1805      O1810   1.262       .  A
N1808      O1812   1.262   1_554  A
N1808      O1811   1.262       .  A
C1813      C1814   1.403       .  A
C1813      C1818   1.397       .  A
C1813      H1820   1.084       .  S
C1814      C1815   1.410       .  A
C1815      C1816   1.396       .  A
C1815      N1822   1.429       .  S
C1816      C1817   1.398       .  A
C1816      H1821   1.082       .  S
C1817      C1818   1.406       .  A
C1818      N1819   1.429       .  S
N1819      O1823   1.262       .  A
N1819      O1824   1.262       .  A
N1822      O1826   1.262       .  A
N1822      O1825   1.262       .  A
C1827      C1828   1.410       .  A
C1827      C1832   1.401       .  A
C1827      H1834   1.083       .  S
C1828      C1829   1.417       .  A
C1829      C1830   1.400       .  A
C1829      N1836   1.429       .  S
C1830      C1831   1.404       .  A
C1830      H1835   1.084       .  S
C1831      C1832   1.411       .  A
C1832      N1833   1.429       .  S
N1833      O1837   1.262       .  A
N1833      O1838   1.262       .  A
N1836      O1840   1.261       .  A
N1836      O1839   1.261       .  A
C1841      C1842   1.412       .  A
C1841      C1846   1.403       .  A
C1841      H1848   1.082       .  S
C1842      C1843   1.422       .  A
C1843      C1844   1.407       .  A
C1843      N1850   1.429       .  S
C1844      C1845   1.400       .  A
C1844      H1849   1.084       .  S
C1845      C1846   1.405       .  A
C1846      N1847   1.429       .  S
N1847      O1851   1.262       .  A
N1847      O1852   1.261       .  A
N1850      O1854   1.261       .  A
N1850      O1853   1.261       .  A
C1855      C1856   1.410       .  A
C1855      C1860   1.398       .  A
C1855      H1862   1.075       .  S
C1856      C1857   1.420       .  A
C1857      C1858   1.401       .  A
C1857      N1864   1.431       .  S
C1858      C1859   1.405       .  A
C1858      H1863   1.083       .  S
C1859      C1860   1.411       .  A
C1860      N1861   1.426       .  S
N1861      O1865   1.262       .  A
N1861      O1866   1.262       .  A
N1864      O1868   1.262       .  A
N1864      O1867   1.262       .  A
C1869      C1870   1.407       .  A
C1869      C1874   1.402       .  A
C1869      H1876   1.083       .  S
C1870      C1871   1.422       .  A
C1871      C1872   1.398       .  A
C1871      N1878   1.428       .  S
C1872      C1873   1.399       .  A
C1872      H1877   1.084       .  S
C1873      C1874   1.414       .  A
C1874      N1875   1.429       .  S
N1875      O1879   1.262       .  A
N1875      O1880   1.262       .  A
N1878      O1882   1.261       .  A
N1878      O1881   1.263       .  A
C1883      C1884   1.417       .  A
C1883      C1888   1.407       .  A
C1883      H1890   1.083       .  S
C1884      C1885   1.408       .  A
C1885      C1886   1.396       .  A
C1885      N1892   1.428       .  S
C1886      C1887   1.410       .  A
C1886      H1891   1.084       .  S
C1887      C1888   1.401       .  A
C1888      N1889   1.427       .  S
N1889      O1893   1.262       .  A
N1889      O1894   1.262       .  A
N1892      O1896   1.262       .  A
N1892      O1895   1.262       .  A
C1897      C1898   1.411   1_565  A
C1897      C1902   1.404       .  A
C1897      H1904   1.078       .  S
C1898      C1899   1.422       .  A
C1899      C1900   1.403       .  A
C1899      N1906   1.429       .  S
C1900      C1901   1.402       .  A
C1900      H1905   1.083       .  S
C1901      C1902   1.417   1_545  A
C1902      N1903   1.430       .  S
N1903      O1907   1.262       .  A
N1903      O1908   1.262       .  A
N1906      O1910   1.262       .  A
N1906      O1909   1.262       .  A
C1911      C1912   1.408   1_565  A
C1911      C1916   1.398       .  A
C1911      H1918   1.084       .  S
C1912      C1913   1.424       .  A
C1913      C1914   1.407       .  A
C1913      N1920   1.428       .  S
C1914      C1915   1.406       .  A
C1914      H1919   1.083       .  S
C1915      C1916   1.417   1_545  A
C1916      N1917   1.429       .  S
N1917      O1921   1.262       .  A
N1917      O1922   1.262       .  A
N1920      O1924   1.262       .  A
N1920      O1923   1.262       .  A
C1925      C1926   1.400       .  A
C1925      C1930   1.401       .  A
C1925      H1932   1.084       .  S
C1926      C1927   1.412       .  A
C1927      C1928   1.397       .  A
C1927      N1934   1.430       .  S
C1928      C1929   1.406       .  A
C1928      H1933   1.083       .  S
C1929      C1930   1.420       .  A
C1930      N1931   1.429       .  S
N1931      O1935   1.262       .  A
N1931      O1936   1.262       .  A
N1934      O1938   1.261       .  A
N1934      O1937   1.262       .  A
C1939      C1940   1.399       .  A
C1939      C1944   1.403       .  A
C1939      H1946   1.077       .  S
C1940      C1941   1.419       .  A
C1941      C1942   1.401       .  A
C1941      N1948   1.431       .  S
C1942      C1943   1.398       .  A
C1942      H1947   1.084       .  S
C1943      C1944   1.410       .  A
C1944      N1945   1.429       .  S
N1945      O1949   1.262       .  A
N1945      O1950   1.262       .  A
N1948      O1952   1.262       .  A
N1948      O1951   1.262       .  A
C1953      C1954   1.405       .  A
C1953      C1958   1.399       .  A
C1953      H1960   1.080       .  S
C1954      C1955   1.425       .  A
C1955      C1956   1.403       .  A
C1955      N1962   1.431       .  S
C1956      C1957   1.397       .  A
C1956      H1961   1.084       .  S
C1957      C1958   1.402       .  A
C1958      N1959   1.427       .  S
N1959      O1963   1.261       .  A
N1959      O1964   1.262       .  A
N1962      O1966   1.262       .  A
N1962      O1965   1.261       .  A
C1967      C1968   1.405       .  A
C1967      C1972   1.403       .  A
C1967      H1974   1.084       .  S
C1968      C1969   1.417       .  A
C1969      C1970   1.400       .  A
C1969      N1976   1.431       .  S
C1970      C1971   1.397       .  A
C1970      H1975   1.084       .  S
C1971      C1972   1.409       .  A
C1972      N1973   1.429       .  S
N1973      O1977   1.262       .  A
N1973      O1978   1.261       .  A
N1976      O1980   1.262       .  A
N1976      O1979   1.261       .  A
C1981      C1982   1.402       .  A
C1981      C1986   1.403       .  A
C1981      H1988   1.083       .  S
C1982      C1983   1.408       .  A
C1983      C1984   1.390       .  A
C1983      N1990   1.426       .  S
C1984      C1985   1.406       .  A
C1984      H1989   1.073       .  S
C1985      C1986   1.422       .  A
C1986      N1987   1.430       .  S
N1987      O1991   1.262       .  A
N1987      O1992   1.262       .  A
N1990      O1994   1.261       .  A
N1990      O1993   1.261       .  A
C1995      C1996   1.401       .  A
C1995      C2000   1.392       .  A
C1995      H2002   1.084       .  S
C1996      C1997   1.412       .  A
C1997      C1998   1.394       .  A
C1997      N2004   1.431       .  S
C1998      C1999   1.411       .  A
C1998      H2003   1.075       .  S
C1999      C2000   1.418       .  A
C2000      N2001   1.429       .  S
N2001      O2005   1.260       .  A
N2001      O2006   1.262       .  A
N2004      O2008   1.262       .  A
N2004      O2007   1.262       .  A
C2009      C2010   1.408       .  A
C2009      C2014   1.396       .  A
C2009      H2016   1.083       .  S
C2010      C2011   1.419       .  A
C2011      C2012   1.397       .  A
C2011      N2018   1.430       .  S
C2012      C2013   1.397       .  A
C2012      H2017   1.085       .  S
C2013      C2014   1.404       .  A
C2014      N2015   1.429       .  S
N2015      O2019   1.262   1_556  A
N2015      O2020   1.262       .  A
N2018      O2022   1.261       .  A
N2018      O2021   1.262       .  A
C2023      C2024   1.398       .  A
C2023      C2028   1.400       .  A
C2023      H2030   1.084       .  S
C2024      C2025   1.409       .  A
C2025      C2026   1.402       .  A
C2025      N2032   1.429       .  S
C2026      C2027   1.399       .  A
C2026      H2031   1.077       .  S
C2027      C2028   1.418       .  A
C2028      N2029   1.431       .  S
N2029      O2033   1.262       .  A
N2029      O2034   1.261       .  A
N2032      O2036   1.262   1_565  A
N2032      O2035   1.262       .  A
C2037      C2038   1.408       .  A
C2037      C2042   1.404       .  A
C2037      H2044   1.082       .  S
C2038      C2039   1.414       .  A
C2039      C2040   1.406       .  A
C2039      N2046   1.429       .  S
C2040      C2041   1.411       .  A
C2040      H2045   1.083       .  S
C2041      C2042   1.416       .  A
C2042      N2043   1.429       .  S
N2043      O2047   1.262       .  A
N2043      O2048   1.262       .  A
N2046      O2050   1.262       .  A
N2046      O2049   1.262       .  A
C2051      C2052   1.404       .  A
C2051      C2056   1.399       .  A
C2051      H2058   1.084       .  S
C2052      C2053   1.406       .  A
C2053      C2054   1.395       .  A
C2053      N2060   1.429       .  S
C2054      C2055   1.402       .  A
C2054      H2059   1.083       .  S
C2055      C2056   1.404       .  A
C2056      N2057   1.429       .  S
N2057      O2061   1.261       .  A
N2057      O2062   1.262       .  A
N2060      O2064   1.262       .  A
N2060      O2063   1.262       .  A
