geometry optimzed in LAMMPS
_audit_creation_date              2020-11-30 
_audit_creation_method            'lammps2cif' 
_symmetry_space_group_name_H-M    'P1' 
_symmetry_Int_Tables_number       1 
_symmetry_cell_setting            triclinic 
loop_ 
_symmetry_equiv_pos_as_xyz 
  x,y,z 
_cell_length_a                    36.59731084 
_cell_length_b                    25.70796592824579 
_cell_length_c                    24.708780943248563 
_cell_angle_alpha                 89.83955875937855 
_cell_angle_beta                  90.68285279290765 
_cell_angle_gamma                 89.96721657474279 
loop_ 
_atom_site_label 
_atom_site_type_symbol 
_atom_site_fract_x 
_atom_site_fract_y 
_atom_site_fract_z 
_atom_site_charge 
In1        In  0.83671336  0.39895003  0.82874651     1.36900
C2          C  0.87909969  0.45690946  0.76489192     0.78600
O3          O  0.78716080  0.40363164  0.77472117    -0.59800
O4          O  0.78276689  0.43375120  0.85378593    -0.50800
C5          C  0.84589118  0.29642864  0.81499915     0.71300
O6          O  0.86750556  0.32389793  0.84286605    -0.45600
C7          C  0.84933312  0.40991227  0.93445847     0.76000
O8          O  0.88264023  0.40841228  0.76964465    -0.57500
O9          O  0.86723630  0.43514703  0.89974901    -0.47600
O10         O  0.85386745  0.47595225  0.79282080    -0.53900
C11         C  0.76685352  0.42442692  0.80939666     0.86200
O12         O  0.82050792  0.32201225  0.79251611    -0.55800
O13         O  0.82562539  0.37988218  0.91449204    -0.59100
In14       In  0.83977576  0.96860488  0.81909569     1.36900
C15         C  0.88048836  0.91014568  0.75366540     0.78600
O16         O  0.83146381  0.04462292  0.77623761    -0.59800
O17         O  0.86435105  0.04448408  0.84721913    -0.50800
C18         C  0.76732725  0.96692980  0.80443963     0.71300
O19         O  0.78931680  0.95346245  0.76808736    -0.45600
C20         C  0.85335092  0.93528555  0.91962323     0.76000
O21         O  0.85591536  0.89164638  0.78313781    -0.57500
O22         O  0.82834943  0.91694939  0.88982911    -0.47600
O23         O  0.88416443  0.95863426  0.75726020    -0.53900
C24         C  0.84956484  0.07109702  0.81001598     0.86200
O25         O  0.78264503  0.98066982  0.84802244    -0.55800
O26         O  0.87299415  0.96884162  0.89662994    -0.59100
In27       In  0.04112665  0.40110034  0.82136142     1.36900
C28         C  0.99573346  0.45847539  0.76018541     0.78600
O29         O  0.06123423  0.32513763  0.78877036    -0.59800
O30         O  0.01006595  0.32539102  0.82746290    -0.50800
C31         C  0.10883996  0.43029394  0.79760266     0.71300
O32         O  0.08858193  0.40508216  0.76544985    -0.45600
C33         C  0.03210330  0.40878568  0.92813724     0.76000
O34         O  0.02130320  0.47812456  0.78780176    -0.57500
O35         O  0.05659341  0.38137019  0.90702199    -0.47600
O36         O  0.99374371  0.40972340  0.76331661    -0.53900
C37         C  0.03429709  0.29880699  0.80435719     0.86200
O38         O  0.09355257  0.44311575  0.84103061    -0.55800
O39         O  0.01180907  0.43202485  0.89427872    -0.59100
In40       In  0.04057589  0.96996991  0.80708572     1.36900
C41         C  0.99627028  0.91022798  0.74606870     0.78600
O42         O  0.08996496  0.96172366  0.75379602    -0.59800
O43         O  0.09808708  0.97126341  0.83823111    -0.50800
C44         C  0.03318540  0.07339665  0.79689053     0.71300
O45         O  0.05329606  0.04658422  0.76671670    -0.45600
C46         C  0.02826651  0.93953568  0.90876180     0.76000
O47         O  0.99205243  0.95850308  0.75099860    -0.57500
O48         O  0.05066133  0.91695192  0.87837201    -0.47600
O49         O  0.02396794  0.89267426  0.77041688    -0.53900
C50         C  0.11260009  0.96615749  0.79255432     0.86200
O51         O  0.01554258  0.04694196  0.83075675    -0.55800
O52         O  0.01143802  0.97671767  0.88630009    -0.59100
C53         C  0.93502162  0.56698853  0.69969373     0.87500
C54         C  0.90294565  0.54185125  0.73054653    -0.52700
C55         C  0.90347263  0.48869661  0.73090630     0.10400
C56         C  0.93582617  0.46522314  0.70048738     0.21400
C57         C  0.96888065  0.54286668  0.72825279    -0.53400
C58         C  0.96920601  0.48969316  0.72854796     0.10500
C59         C  0.93393561  0.54230277  0.64320601    -0.53000
C60         C  0.93436984  0.48913479  0.64324293     0.11100
H61         H  0.88342601  0.56365297  0.75416214     0.15600
H62         H  0.93593222  0.42203713  0.70097339     0.01400
H63         H  0.98943960  0.56555089  0.74963327     0.15900
H64         H  0.93369661  0.56527706  0.60625159     0.15700
C65         C  0.93576532  0.79802943  0.69293610     0.87500
C66         C  0.96977010  0.82385066  0.71951659    -0.52700
C67         C  0.96984392  0.87705620  0.71652602     0.10400
C68         C  0.93615519  0.89967255  0.68752396     0.21400
C69         C  0.90385904  0.82449841  0.72256056    -0.53400
C70         C  0.90413199  0.87750405  0.71974642     0.10500
C71         C  0.93433874  0.81971153  0.63500846    -0.53000
C72         C  0.93477624  0.87277641  0.63183710     0.11100
H73         H  0.99050362  0.80247200  0.74212199     0.15600
H74         H  0.93599618  0.94282348  0.68536895     0.01400
H75         H  0.88485761  0.80380970  0.74819340     0.15900
H76         H  0.93436512  0.79489152  0.59951730     0.15700
In77       In  0.53871065  0.44184649  0.75519519     1.36900
C78         C  0.49689767  0.50158776  0.81744247     0.78600
O79         O  0.58832975  0.45881277  0.80727325    -0.59800
O80         O  0.59614613  0.42795229  0.72898441    -0.50800
C81         C  0.52883717  0.33977167  0.76739073     0.71300
O82         O  0.51438130  0.36533072  0.72911953    -0.45600
C83         C  0.52557651  0.47380999  0.65409521     0.76000
O84         O  0.49248365  0.45326110  0.81312252    -0.57500
O85         O  0.54975639  0.49356987  0.68436564    -0.47600
O86         O  0.52284965  0.51943348  0.79025427    -0.53900
C87         C  0.61082733  0.44362833  0.77237071     0.86200
O88         O  0.54670605  0.36714275  0.80065974    -0.55800
O89         O  0.50702086  0.43873172  0.67650743    -0.59100
In90       In  0.54077513  0.01352733  0.75428999     1.36900
C91         C  0.49784342  0.95573121  0.81667133     0.78600
O92         O  0.55744304  0.08996316  0.79090443    -0.59800
O93         O  0.50849690  0.08704886  0.74447297    -0.50800
C94         C  0.61109789  0.98928014  0.77157540     0.71300
O95         O  0.58943895  0.00004918  0.80921080    -0.45600
C96         C  0.52590128  0.00287171  0.64886150     0.76000
O97         O  0.52242238  0.93652846  0.78755713    -0.57500
O98         O  0.54509332  0.03889437  0.66855037    -0.47600
O99         O  0.49528806  0.00451263  0.81403310    -0.53900
C100        C  0.53099450  0.11487845  0.77031474     0.86200
O101        O  0.59638410  0.98970452  0.72528758    -0.55800
O102        O  0.51379337  0.97142708  0.68369122    -0.59100
C103        C  0.44080013  0.61356960  0.87762511     0.87500
C104        C  0.47314950  0.58765968  0.84828933    -0.52700
C105        C  0.47266084  0.53449063  0.85003202     0.10400
C106        C  0.44026517  0.51185659  0.88093092     0.21400
C107        C  0.40724687  0.58831208  0.84956877    -0.53400
C108        C  0.40699702  0.53523575  0.85156166     0.10500
C109        C  0.44172458  0.59069707  0.93512793    -0.53000
C110        C  0.44146437  0.53753449  0.93717878     0.11100
H111        H  0.49289688  0.60896366  0.82447371     0.15600
H112        H  0.44033140  0.46868432  0.88200206     0.01400
H113        H  0.38708693  0.60993742  0.82611370     0.15900
H114        H  0.44176887  0.61482540  0.97112854     0.15700
C115        C  0.44034556  0.84484765  0.87580976     0.87500
C116        C  0.40722964  0.87067806  0.84655370    -0.52700
C117        C  0.40722802  0.92389143  0.84863224     0.10400
C118        C  0.44017293  0.94660732  0.87918524     0.21400
C119        C  0.47314235  0.87056148  0.84757717    -0.53400
C120        C  0.47297315  0.92364910  0.84929164     0.10500
C121        C  0.44044942  0.86742066  0.93332312    -0.53000
C122        C  0.44016370  0.92050511  0.93526941     0.11100
H123        H  0.38711567  0.84933829  0.82287625     0.15600
H124        H  0.44035401  0.98978642  0.88071465     0.01400
H125        H  0.49295005  0.84920048  0.82401723     0.15900
H126        H  0.44002754  0.84327225  0.96945439     0.15700
In127      In  0.33690681  0.44546175  0.75747413     1.36900
C128        C  0.38098320  0.50331249  0.82006855     0.78600
O129        O  0.32410206  0.37182662  0.80232525    -0.59800
O130        O  0.36631604  0.36998699  0.74424306    -0.50800
C131        C  0.26448777  0.44995311  0.76701095     0.71300
O132        O  0.28600459  0.46745190  0.80288897    -0.45600
C133        C  0.34950621  0.47232073  0.65479502     0.76000
O134        O  0.35639741  0.52251968  0.79023925    -0.57500
O135        O  0.36041972  0.43015902  0.67542511    -0.47600
O136        O  0.38250716  0.45450531  0.81899935    -0.53900
C137        C  0.34717321  0.34464566  0.77737946     0.86200
O138        O  0.28029148  0.43104725  0.72659742    -0.55800
O139        O  0.33362037  0.50180411  0.68763958    -0.59100
In140      In  0.33867436  0.01841130  0.75635324     1.36900
C141        C  0.38167264  0.95714015  0.81729009     0.78600
O142        O  0.28946741  0.00277918  0.80830961    -0.59800
O143        O  0.28416887  0.99307064  0.72375362    -0.50800
C144        C  0.34716374  0.11968152  0.77725191     0.71300
O145        O  0.31971916  0.09391205  0.79206703    -0.45600
C146        C  0.35255688  0.01021894  0.65079905     0.76000
O147        O  0.38278707  0.00607166  0.81928402    -0.57500
O148        O  0.36681673  0.98021617  0.68561463    -0.47600
O149        O  0.35804812  0.93934104  0.78483944    -0.53900
C150        C  0.26864898  0.99200159  0.76885476     0.86200
O151        O  0.37123606  0.09273525  0.75424270    -0.55800
O152        O  0.33279540  0.04519893  0.67069026    -0.59100
In153      In  0.83575599  0.46864289  0.26679274     1.36900
C154        C  0.87926680  0.40808189  0.32699735     0.78600
O155        O  0.77954681  0.48374225  0.23497927    -0.59800
O156        O  0.78467422  0.44788122  0.31195311    -0.50800
C157        C  0.84612384  0.56925645  0.28566064     0.71300
O158        O  0.82522223  0.54173733  0.31422185    -0.45600
C159        C  0.85013383  0.44289134  0.16497864     0.76000
O160        O  0.88017444  0.45686926  0.32903647    -0.57500
O161        O  0.86557580  0.48051824  0.18847700    -0.47600
O162        O  0.85508900  0.39003222  0.29582292    -0.53900
C163        C  0.76346694  0.46546417  0.27556845     0.86200
O164        O  0.86258434  0.54442289  0.24933934    -0.55800
O165        O  0.82852270  0.41774160  0.19449571    -0.59100
In166      In  0.83591180  0.89350796  0.25633935     1.36900
C167        C  0.88075251  0.95415738  0.31375596     0.78600
O168        O  0.81831198  0.81887696  0.29635307    -0.59800
O169        O  0.86840210  0.81966638  0.25455760    -0.50800
C170        C  0.76646974  0.91979998  0.27400231     0.71300
O171        O  0.78861451  0.90877942  0.31184443    -0.45600
C172        C  0.84868386  0.90076327  0.15019994     0.76000
O173        O  0.85368651  0.97200371  0.28779975    -0.57500
O174        O  0.82957149  0.86542068  0.17099629    -0.47600
O175        O  0.88445018  0.90557673  0.31083655    -0.53900
C176        C  0.84552859  0.79320654  0.28057946     0.86200
O177        O  0.78032150  0.91835062  0.22761328    -0.55800
O178        O  0.86163775  0.93259345  0.18410709    -0.59100
In179      In  0.03776694  0.47097195  0.26158465     1.36900
C180        C  0.99586990  0.41028241  0.32453350     0.78600
O181        O  0.04680688  0.54654146  0.30549046    -0.59800
O182        O  0.01152738  0.54634533  0.23690364    -0.50800
C183        C  0.11019996  0.46857323  0.27266667     0.71300
O184        O  0.08914577  0.45272633  0.30935113    -0.45600
C185        C  0.02713955  0.44134295  0.15943814     0.76000
O186        O  0.02059660  0.39268056  0.29485714    -0.57500
O187        O  0.04955930  0.41950718  0.19116648    -0.47600
O188        O  0.99276586  0.45898571  0.32268511    -0.53900
C189        C  0.02724596  0.57294362  0.27312970     0.86200
O190        O  0.09390811  0.48630524  0.23149132    -0.55800
O191        O  0.00805950  0.47610042  0.18138641    -0.59100
In192      In  0.03994937  0.89837930  0.24593403     1.36900
C193        C  0.99729854  0.95635165  0.30916785     0.78600
O194        O  0.09011829  0.90335660  0.29898348    -0.59800
O195        O  0.09318573  0.93387279  0.21960335    -0.50800
C196        C  0.02997907  0.79750556  0.26411054     0.71300
O197        O  0.05654264  0.82265743  0.28380466    -0.45600
C198        C  0.02736531  0.90377459  0.13937528     0.76000
O199        O  0.99474388  0.90768546  0.30611266    -0.57500
O200        O  0.04939149  0.87218631  0.16114860    -0.47600
O201        O  0.02162827  0.97571689  0.27966387    -0.53900
C202        C  0.10967040  0.92465389  0.26361169     0.86200
O203        O  0.00774428  0.82471287  0.23681065    -0.55800
O204        O  0.01115221  0.93279439  0.17262657    -0.59100
C205        C  0.93978257  0.06563429  0.37168683     0.87500
C206        C  0.97251077  0.04096230  0.34220439    -0.52700
C207        C  0.97265648  0.98783054  0.34284112     0.10400
C208        C  0.94030960  0.96389733  0.37308263     0.21400
C209        C  0.90651539  0.04024061  0.34273520    -0.53400
C210        C  0.90691995  0.98702194  0.34381843     0.10500
C211        C  0.94043146  0.04173857  0.42865772    -0.53000
C212        C  0.94054151  0.98863618  0.42971873     0.11100
H213        H  0.99200182  0.06312053  0.31876739     0.15600
H214        H  0.94078491  0.92070768  0.37371253     0.01400
H215        H  0.88586050  0.06191246  0.32029902     0.15900
H216        H  0.93978371  0.06516970  0.46514524     0.15700
C217        C  0.93939887  0.29655719  0.38173677     0.87500
C218        C  0.90613998  0.32227343  0.35322506    -0.52700
C219        C  0.90562204  0.37525291  0.35667163     0.10400
C220        C  0.93844576  0.39817074  0.38725511     0.21400
C221        C  0.97207614  0.32349501  0.35399999    -0.53400
C222        C  0.97143620  0.37663482  0.35672366     0.10500
C223        C  0.93928354  0.31795458  0.43976223    -0.53000
C224        C  0.93863084  0.37106411  0.44287735     0.11100
H225        H  0.88611087  0.30108612  0.32923478     0.15600
H226        H  0.93824402  0.44130805  0.38940654     0.01400
H227        H  0.99213197  0.30291356  0.33015951     0.15900
H228        H  0.93870751  0.29297432  0.47525341     0.15700
In229      In  0.33688493  0.94079419  0.31869177     1.36900
C230        C  0.37894335  0.00008258  0.25526559     0.78600
O231        O  0.27888773  0.93805078  0.34688340    -0.59800
O232        O  0.28810399  0.95335163  0.26391041    -0.50800
C233        C  0.34548405  0.83801869  0.30723192     0.71300
O234        O  0.32225328  0.86420688  0.28077906    -0.45600
C235        C  0.35055226  0.96949242  0.42093519     0.76000
O236        O  0.38186581  0.95142684  0.25777119    -0.57500
O237        O  0.36575479  0.93083904  0.39945362    -0.47600
O238        O  0.35432605  0.01840033  0.28460580    -0.53900
C239        C  0.26497939  0.94683101  0.30080409     0.86200
O240        O  0.36515477  0.86487428  0.33874365    -0.55800
O241        O  0.32936600  0.99397818  0.38938724    -0.59100
In242      In  0.33599139  0.51122229  0.31612212     1.36900
C243        C  0.37945943  0.45356079  0.25405207     0.78600
O244        O  0.32062434  0.58797935  0.27873620    -0.59800
O245        O  0.36750833  0.58493712  0.32979116    -0.50800
C246        C  0.26666692  0.48542035  0.29651684     0.71300
O247        O  0.28559712  0.51058160  0.26309344    -0.45600
C248        C  0.34613417  0.50270561  0.42302405     0.76000
O249        O  0.35240918  0.43499547  0.27831144    -0.57500
O250        O  0.36183702  0.47314047  0.38979204    -0.47600
O251        O  0.38417303  0.50149532  0.26128184    -0.53900
C252        C  0.34606897  0.61288738  0.30188728     0.86200
O253        O  0.28371302  0.47245395  0.33898795    -0.55800
O254        O  0.32553515  0.53608456  0.40112562    -0.59100
C255        C  0.43834122  0.34299371  0.19761265     0.87500
C256        C  0.47090299  0.36819912  0.22770963    -0.52700
C257        C  0.47059691  0.42138198  0.22648470     0.10400
C258        C  0.43838084  0.44471704  0.19471327     0.21400
C259        C  0.40408859  0.36852267  0.22241722    -0.53400
C260        C  0.40486656  0.42160166  0.22237384     0.10500
C261        C  0.43906291  0.36632049  0.14002832    -0.53000
C262        C  0.43945511  0.41947899  0.13835791     0.11100
H263        H  0.49135772  0.34589489  0.24999325     0.15600
H264        H  0.43813244  0.48790115  0.19373072     0.01400
H265        H  0.38149314  0.34723036  0.23970343     0.15900
H266        H  0.43895689  0.34295492  0.10354709     0.15700
C267        C  0.43552623  0.11229445  0.19589932     0.87500
C268        C  0.40255158  0.08604396  0.22364458    -0.52700
C269        C  0.40362759  0.03290653  0.22300677     0.10400
C270        C  0.43630576  0.01058874  0.19256423     0.21400
C271        C  0.46935814  0.08729508  0.22291939    -0.53400
C272        C  0.46948028  0.03421840  0.22173783     0.10500
C273        C  0.43402365  0.08957859  0.13814111    -0.53000
C274        C  0.43497663  0.03645078  0.13631056     0.11100
H275        H  0.38035497  0.10677962  0.24258463     0.15600
H276        H  0.43658696  0.96740290  0.19131596     0.01400
H277        H  0.49030376  0.10973646  0.24381055     0.15900
H278        H  0.43265875  0.11328811  0.10175773     0.15700
In279      In  0.53842626  0.51549365  0.31831678     1.36900
C280        C  0.49562583  0.45436608  0.25837329     0.78600
O281        O  0.58691262  0.50718548  0.26420826    -0.59800
O282        O  0.59263563  0.48453283  0.34622432    -0.50800
C283        C  0.52897346  0.61686717  0.30080724     0.71300
O284        O  0.55437523  0.59108949  0.27966179    -0.45600
C285        C  0.52651772  0.50873411  0.42396864     0.76000
O286        O  0.49223649  0.50307912  0.25981258    -0.57500
O287        O  0.54920231  0.53941107  0.40315330    -0.47600
O288        O  0.52116360  0.43656583  0.28755151    -0.53900
C289        C  0.60777318  0.48992260  0.30107254     0.86200
O290        O  0.50708887  0.58983642  0.32803618    -0.55800
O291        O  0.50935793  0.48094851  0.39012337    -0.59100
In292      In  0.53871680  0.94349546  0.31679678     1.36900
C293        C  0.49543582  0.00214579  0.25334773     0.78600
O294        O  0.55058615  0.86863786  0.27392760    -0.59800
O295        O  0.51246545  0.86732212  0.33763460    -0.50800
C296        C  0.61112376  0.94731646  0.30517595     0.71300
O297        O  0.58886187  0.95651905  0.26692117    -0.45600
C298        C  0.52397210  0.97014419  0.41830989     0.76000
O299        O  0.52111635  0.02087180  0.28128991    -0.57500
O300        O  0.50909567  0.93195265  0.39507669    -0.47600
O301        O  0.49253754  0.95357859  0.25670772    -0.53900
C302        C  0.52968600  0.84160013  0.30285632     0.86200
O303        O  0.59612407  0.93737871  0.34966423    -0.55800
O304        O  0.54510525  0.99593019  0.38852248    -0.59100
C305        C  0.55086066  0.70234110  0.26427938     0.24600
C306        C  0.52630271  0.67425915  0.29660930    -0.23500
C307        C  0.50117147  0.70190073  0.32833111     0.19500
C308        C  0.50145649  0.75629382  0.32909166     0.24600
C309        C  0.52676612  0.78431891  0.29795583    -0.23400
C310        C  0.55093965  0.75670319  0.26469971     0.19500
F311        F  0.57574040  0.78213342  0.23392660    -0.13400
F312        F  0.57570402  0.67732856  0.23332748    -0.15800
F313        F  0.47749164  0.78134324  0.36150307    -0.15800
F314        F  0.47720840  0.67643653  0.36050547    -0.13400
C315        C  0.42276328  0.25491177  0.24208884     0.24600
C316        C  0.43951986  0.28315818  0.19997704    -0.23500
C317        C  0.46079903  0.25450547  0.16320033     0.19500
C318        C  0.45955481  0.20002441  0.16231701     0.24600
C319        C  0.43731549  0.17204869  0.19856436    -0.23400
C320        C  0.42174353  0.20043661  0.24147243     0.19500
F321        F  0.40788705  0.17607067  0.28542876    -0.13400
F322        F  0.40944521  0.27935187  0.28627705    -0.15800
F323        F  0.48140251  0.17469939  0.12702168    -0.15800
F324        F  0.48413753  0.27890573  0.12922506    -0.13400
C325        C  0.32705528  0.75348475  0.26419574     0.24600
C326        C  0.34848686  0.78056137  0.30257262    -0.23500
C327        C  0.37133243  0.75185860  0.33792974     0.19500
C328        C  0.37179200  0.69740452  0.33607316     0.24600
C329        C  0.34921330  0.67037005  0.29910951    -0.23400
C330        C  0.32738428  0.69911026  0.26254181     0.19500
F331        F  0.30570873  0.67465828  0.22560799    -0.13400
F332        F  0.30504656  0.77949212  0.22872261    -0.15800
F333        F  0.39318082  0.67121882  0.37224787    -0.15800
F334        F  0.39227617  0.77622563  0.37583032    -0.13400
C335        C  0.97256670  0.20822785  0.38274059     0.24600
C336        C  0.93956232  0.23665466  0.38020706    -0.23500
C337        C  0.90670111  0.20790122  0.38279352     0.19500
C338        C  0.90679260  0.15347095  0.37977148     0.24600
C339        C  0.93971259  0.12546632  0.37381017    -0.23400
C340        C  0.97267455  0.15379763  0.37926459     0.19500
F341        F  0.00529180  0.12903238  0.38440154    -0.13400
F342        F  0.00494306  0.23257743  0.39184151    -0.15800
F343        F  0.87449330  0.12836209  0.38589448    -0.15800
F344        F  0.87426016  0.23193304  0.39132814    -0.13400
C345        C  0.17300822  0.93854916  0.22865619     0.24600
C346        C  0.14890436  0.93606488  0.27255884    -0.23500
C347        C  0.16300961  0.94150616  0.32539395     0.19500
C348        C  0.20056756  0.94747393  0.33437272     0.24600
C349        C  0.22495617  0.94710204  0.29072412    -0.23400
C350        C  0.21068715  0.94365809  0.23765057     0.19500
F351        F  0.23324224  0.94281803  0.19441690    -0.13400
F352        F  0.16039357  0.93320930  0.17705918    -0.15800
F353        F  0.21303215  0.95292128  0.38602025    -0.15800
F354        F  0.14043288  0.94070010  0.36859555    -0.13400
C355        C  0.17219332  0.48154810  0.23265739     0.24600
C356        C  0.15056326  0.46739837  0.27719175    -0.23500
C357        C  0.16796191  0.45349072  0.32615598     0.19500
C358        C  0.20595689  0.45660234  0.33146385     0.24600
C359        C  0.22732933  0.47439415  0.28813563    -0.23400
C360        C  0.21016069  0.48509426  0.23812326     0.19500
F361        F  0.22999104  0.49972992  0.19454050    -0.13400
F362        F  0.15666956  0.49280872  0.18381099    -0.15800
F363        F  0.22158747  0.44400241  0.37985858    -0.15800
F364        F  0.14822206  0.43847127  0.36965960    -0.13400
C365        C  0.04702257  0.65914400  0.31117979     0.24600
C366        C  0.02453476  0.63053726  0.27544842    -0.23500
C367        C  0.00168169  0.65780366  0.23883419     0.19500
C368        C  0.00251748  0.71216466  0.23639576     0.24600
C369        C  0.02614153  0.74053311  0.27061611    -0.23400
C370        C  0.04784548  0.71348572  0.30871117     0.19500
F371        F  0.07054132  0.73953269  0.34302808    -0.13400
F372        F  0.06932789  0.63463889  0.34739060    -0.15800
F373        F  0.98141462  0.73675444  0.19864882    -0.15800
F374        F  0.97923879  0.63194279  0.20403048    -0.13400
C375        C  0.70357789  0.93970770  0.23814323     0.24600
C376        C  0.72729287  0.93178025  0.28273120    -0.23500
C377        C  0.71275318  0.93313175  0.33523877     0.19500
C378        C  0.67518487  0.94018286  0.34276581     0.24600
C379        C  0.65131353  0.94585285  0.29794177    -0.23400
C380        C  0.66612294  0.94678671  0.24566982     0.19500
F381        F  0.64423553  0.95268850  0.20132686    -0.13400
F382        F  0.71632667  0.93902151  0.18677193    -0.15800
F383        F  0.66220615  0.94068541  0.39402294    -0.15800
F384        F  0.73468811  0.92652640  0.37944350    -0.13400
C385        C  0.70631054  0.45168968  0.32889175     0.24600
C386        C  0.72319643  0.46657527  0.28041330    -0.23500
C387        C  0.70128651  0.48528768  0.23729816     0.19500
C388        C  0.66360664  0.49103644  0.24331864     0.24600
C389        C  0.64697727  0.47869165  0.29275306    -0.23400
C390        C  0.66865114  0.45800371  0.33513262     0.19500
F391        F  0.65362346  0.44474597  0.38321656    -0.13400
F392        F  0.72628192  0.43229325  0.37099036    -0.15800
F393        F  0.64366019  0.51012357  0.20102771    -0.15800
F394        F  0.71630840  0.49913609  0.18937731    -0.13400
C395        C  0.82569989  0.65465612  0.32471376     0.24600
C396        C  0.84971817  0.62636009  0.29174145    -0.23500
C397        C  0.87520398  0.65373109  0.26039222     0.19500
C398        C  0.87486374  0.70799443  0.25871142     0.24600
C399        C  0.84933342  0.73633980  0.28893579    -0.23400
C400        C  0.82561702  0.70915780  0.32345630     0.19500
F401        F  0.80155324  0.73518607  0.35486405    -0.13400
F402        F  0.80111068  0.62978342  0.35634778    -0.15800
F403        F  0.89832180  0.73250637  0.22498681    -0.15800
F404        F  0.89970696  0.62802511  0.22946573    -0.13400
C405        C  0.33721243  0.03647389  0.55554354     0.24600
C406        C  0.35656778  0.00362481  0.59150001    -0.23500
C407        C  0.37704505  0.96225183  0.57009347     0.19500
C408        C  0.37661460  0.95245495  0.51427597     0.24600
C409        C  0.35551663  0.98366336  0.47878293    -0.23400
C410        C  0.33673599  0.02666244  0.50000727     0.19500
F411        F  0.31661822  0.05846037  0.46732388    -0.13400
F412        F  0.31725624  0.07708998  0.57412566    -0.15800
F413        F  0.39575149  0.91117170  0.49542592    -0.15800
F414        F  0.39634927  0.92989724  0.60324615    -0.13400
C415        C  0.33397326  0.52684038  0.57324247     0.24600
C416        C  0.35300234  0.48451707  0.59638265    -0.23500
C417        C  0.37274770  0.45124973  0.56225871     0.19500
C418        C  0.37155232  0.45806597  0.50604914     0.24600
C419        C  0.35056456  0.49833071  0.48266796    -0.23400
C420        C  0.33264912  0.53355042  0.51705942     0.19500
F421        F  0.31296450  0.57395912  0.49645202    -0.13400
F422        F  0.31539437  0.56081620  0.60469347    -0.15800
F423        F  0.39014111  0.42417788  0.47458078    -0.15800
F424        F  0.39258489  0.41115403  0.58311753    -0.13400
C425        C  0.37875892  0.25949573  0.76016839     0.24600
C426        C  0.35003086  0.28734843  0.78402555    -0.23500
C427        C  0.32221340  0.25940678  0.81015288     0.19500
C428        C  0.32211618  0.20496298  0.80995993     0.24600
C429        C  0.34987133  0.17704628  0.78369230    -0.23400
C430        C  0.37863263  0.20501264  0.75984344     0.19500
F431        F  0.40592607  0.17982144  0.73399168    -0.13400
F432        F  0.40655945  0.28492618  0.73567853    -0.15800
F433        F  0.29395465  0.17975598  0.83384853    -0.15800
F434        F  0.29394549  0.28462232  0.83367936    -0.13400
C435        C  0.46366693  0.93947574  0.02922354     0.24600
C436        C  0.43878156  0.95016720  0.98681181    -0.23500
C437        C  0.41247981  0.98942768  0.99383840     0.19500
C438        C  0.41100327  0.01733646  0.04243486     0.24600
C439        C  0.43592057  0.00661924  0.08484866    -0.23400
C440        C  0.46227531  0.96748219  0.07771741     0.19500
F441        F  0.48761132  0.95762095  0.11700668    -0.13400
F442        F  0.49015399  0.90305400  0.02303386    -0.15800
F443        F  0.38459628  0.05390285  0.04854567    -0.15800
F444        F  0.38748093  0.99977319  0.95421123    -0.13400
C445        C  0.46384425  0.52165277  0.03296712     0.24600
C446        C  0.44126380  0.50736861  0.98884819    -0.23500
C447        C  0.41821916  0.46392378  0.99438448     0.19500
C448        C  0.41763110  0.43553987  0.04277428     0.24600
C449        C  0.44014942  0.44976986  0.08686366    -0.23400
C450        C  0.46328321  0.49314267  0.08143053     0.19500
F451        F  0.48630094  0.50702796  0.12239940    -0.13400
F452        F  0.48731528  0.56230718  0.02875232    -0.15800
F453        F  0.39398618  0.39510681  0.04703146    -0.15800
F454        F  0.39508085  0.44988646  0.95365502    -0.13400
C455        C  0.47375282  0.70192622  0.88121792     0.24600
C456        C  0.44081110  0.67347393  0.87764740    -0.23500
C457        C  0.40787570  0.70194380  0.88121925     0.19500
C458        C  0.40778325  0.75642679  0.88026330     0.24600
C459        C  0.44062458  0.78490288  0.87615677    -0.23400
C460        C  0.47368746  0.75649483  0.88046054     0.19500
F461        F  0.50623397  0.78111718  0.88688807    -0.13400
F462        F  0.50626803  0.67728773  0.88844214    -0.15800
F463        F  0.37528089  0.78099566  0.88636786    -0.15800
F464        F  0.37549002  0.67749201  0.88884557    -0.13400
C465        C  0.53372861  0.02772735  0.49857857     0.24600
C466        C  0.51891552  0.98197935  0.47638535    -0.23500
C467        C  0.50214689  0.94580072  0.51115773     0.19500
C468        C  0.50275738  0.95344722  0.56732500     0.24600
C469        C  0.51985782  0.99763476  0.58964799    -0.23400
C470        C  0.53377894  0.03575608  0.55438941     0.19500
F471        F  0.54859076  0.08046498  0.57386136    -0.13400
F472        F  0.54934679  0.06424600  0.46648703    -0.15800
F473        F  0.48792846  0.91654428  0.59975356    -0.15800
F474        F  0.48682073  0.90162987  0.49121712    -0.13400
C475        C  0.49645313  0.46170032  0.56218828     0.24600
C476        C  0.52110763  0.48848444  0.59636623    -0.23500
C477        C  0.54406361  0.52640696  0.57372500     0.19500
C478        C  0.54445373  0.53451324  0.51794706     0.24600
C479        C  0.52192025  0.50486593  0.48327312    -0.23400
C480        C  0.49688886  0.46977695  0.50609725     0.19500
F481        F  0.47368616  0.44192733  0.47417367    -0.13400
F482        F  0.47292988  0.42610190  0.58263230    -0.15800
F483        F  0.56818689  0.57009899  0.49792794    -0.15800
F484        F  0.56743090  0.55442934  0.60521801    -0.13400
C485        C  0.50329299  0.25361601  0.73721263     0.24600
C486        C  0.52660204  0.28231485  0.77165294    -0.23500
C487        C  0.54986755  0.25527167  0.80779488     0.19500
C488        C  0.55043851  0.20090833  0.80867484     0.24600
C489        C  0.52767490  0.17221712  0.77355239    -0.23400
C490        C  0.50377388  0.19918911  0.73824201     0.19500
F491        F  0.48209588  0.17301351  0.70262235    -0.13400
F492        F  0.48074947  0.27803886  0.70125282    -0.15800
F493        F  0.57404501  0.17648244  0.84310985    -0.15800
F494        F  0.57340302  0.28132423  0.84082198    -0.13400
C495        C  0.96085046  0.94344374  0.57360377     0.24600
C496        C  0.93638725  0.90167428  0.57954286    -0.23500
C497        C  0.91386292  0.88779600  0.53525788     0.19500
C498        C  0.91528121  0.91585509  0.48655995     0.24600
C499        C  0.93944399  0.95808414  0.48099366    -0.21800
C500        C  0.96225628  0.97143155  0.52502127     0.19500
F501        F  0.98671307  0.01085732  0.52060894    -0.13400
F502        F  0.98448309  0.95615026  0.61420136    -0.15800
F503        F  0.89195246  0.90292211  0.44563783    -0.15800
F504        F  0.88966161  0.84802360  0.53953854    -0.13400
C505        C  0.95940756  0.38651045  0.53913931     0.24600
C506        C  0.93669255  0.40004770  0.49494373    -0.23500
C507        C  0.91242344  0.44216179  0.50042591     0.19500
C508        C  0.91139066  0.47069750  0.54860799     0.24600
C509        C  0.93455284  0.45772863  0.59254485    -0.23400
C510        C  0.95839067  0.41506939  0.58735968     0.19500
F511        F  0.98198914  0.40231385  0.62806610    -0.13400
F512        F  0.98372343  0.34686715  0.53497502    -0.15800
F513        F  0.88710284  0.51040960  0.55261226    -0.15800
F514        F  0.88890481  0.45500873  0.45962309    -0.13400
C515        C  0.90193726  0.65547667  0.69585287     0.24600
C516        C  0.93490086  0.62683504  0.69697199    -0.23500
C517        C  0.96755176  0.65480469  0.68823290     0.19500
C518        C  0.96777570  0.70933608  0.68698881     0.24600
C519        C  0.93532314  0.73814593  0.69402086    -0.23400
C520        C  0.90213212  0.70995840  0.69438775     0.19500
F521        F  0.86940544  0.73454202  0.68999002    -0.13400
F522        F  0.86908526  0.63117608  0.69259924    -0.15800
F523        F  0.99981791  0.73364483  0.67637806    -0.15800
F524        F  0.99935566  0.62956281  0.67837325    -0.13400
C525        C  0.00127257  0.94753501  0.05632697     0.24600
C526        C  0.02268628  0.90775646  0.07972223    -0.23500
C527        C  0.04205227  0.87413227  0.04535944     0.19500
C528        C  0.04264084  0.88302803  0.98948578     0.24600
C529        C  0.02351918  0.92539723  0.96656366    -0.23400
C530        C  0.00178105  0.95637066  0.00041079     0.19500
F531        F  0.98221987  0.99688942  0.97988453    -0.13400
F532        F  0.98088748  0.97936817  0.08765611    -0.15800
F533        F  0.06296264  0.85099975  0.95821323    -0.15800
F534        F  0.06143124  0.83336365  0.06583681    -0.13400
C535        C  0.21398082  0.97143570  0.82551050     0.24600
C536        C  0.22912015  0.98087720  0.77438555    -0.23500
C537        C  0.20576800  0.98194109  0.72859384     0.19500
C538        C  0.16799498  0.97575547  0.73413159     0.24600
C539        C  0.15277627  0.96756157  0.78548234    -0.23400
C540        C  0.17632142  0.96420133  0.83089448     0.19500
F541        F  0.16290829  0.95442117  0.88089834    -0.13400
F542        F  0.23551929  0.96970938  0.87060120    -0.15800
F543        F  0.14628887  0.97994737  0.68937599    -0.15800
F544        F  0.21921981  0.99113359  0.67847912    -0.13400
C545        C  0.00326354  0.45922082  0.06544823     0.24600
C546        C  0.02524431  0.42927741  0.10083819    -0.23500
C547        C  0.04793806  0.39057196  0.07897040     0.19500
C548        C  0.04931004  0.38290687  0.02306071     0.24600
C549        C  0.02826826  0.41404902  0.98754320    -0.23400
C550        C  0.00477346  0.45169632  0.00944514     0.19500
F551        F  0.98411622  0.48267270  0.97666211    -0.13400
F552        F  0.98125170  0.49727635  0.08470006    -0.15800
F553        F  0.07178753  0.34537299  0.00382471    -0.15800
F554        F  0.06972154  0.36086268  0.11148570    -0.13400
C555        C  0.16922179  0.47131535  0.82218646     0.24600
C556        C  0.14784955  0.44089165  0.78656641    -0.23500
C557        C  0.16488994  0.41674095  0.74249555     0.19500
C558        C  0.20254117  0.42100047  0.73544711     0.24600
C559        C  0.22419289  0.44964823  0.77222077    -0.23400
C560        C  0.20701292  0.47572220  0.81500136     0.19500
F561        F  0.22680393  0.50478997  0.85054834    -0.13400
F562        F  0.15380030  0.49586195  0.86481531    -0.15800
F563        F  0.21787598  0.39509019  0.69361882    -0.15800
F564        F  0.14545865  0.38681076  0.70728836    -0.13400
C565        C  0.06172073  0.21375896  0.77560904     0.24600
C566        C  0.03221250  0.24138704  0.79779731    -0.23500
C567        C  0.00181368  0.21316826  0.81633941     0.19500
C568        C  0.00184771  0.15861403  0.81546563     0.24600
C569        C  0.03168315  0.13109710  0.79430158    -0.23400
C570        C  0.06123744  0.15937530  0.77328629     0.19500
F571        F  0.09066934  0.13437204  0.75279734    -0.13400
F572        F  0.09176405  0.23914373  0.75757639    -0.15800
F573        F  0.97272291  0.13270436  0.83565431    -0.15800
F574        F  0.97224966  0.23823024  0.83627079    -0.13400
C575        C  0.87702397  0.94388686  0.06920089     0.24600
C576        C  0.85413689  0.90525119  0.09092139    -0.23500
C577        C  0.83477839  0.87247476  0.05513242     0.19500
C578        C  0.83618447  0.88049505  0.99926250     0.24600
C579        C  0.85726221  0.92114732  0.97764088    -0.23400
C580        C  0.87874170  0.95155414  0.01310433     0.19500
F581        F  0.89994055  0.99062095  0.99387705    -0.13400
F582        F  0.89684821  0.97553499  0.10219449    -0.15800
F583        F  0.81571272  0.84943641  0.96649319    -0.15800
F584        F  0.81308068  0.83382896  0.07407277    -0.13400
C585        C  0.71116031  0.96025897  0.74508125     0.24600
C586        C  0.72705217  0.96804624  0.79659759    -0.23500
C587        C  0.70407816  0.97921219  0.84041261     0.19500
C588        C  0.66638019  0.98472604  0.83251952     0.24600
C589        C  0.65061022  0.97888546  0.78066857    -0.23400
C590        C  0.67337179  0.96556239  0.73721172     0.19500
F591        F  0.65926357  0.95860136  0.68667303    -0.13400
F592        F  0.73221402  0.94891000  0.70179806    -0.15800
F593        F  0.64552261  0.99724734  0.87565859    -0.15800
F594        F  0.71805771  0.98565178  0.89109959    -0.13400
C595        C  0.83707724  0.37965245  0.02845694     0.24600
C596        C  0.85437939  0.41521963  0.99376202    -0.23500
C597        C  0.87421499  0.45682636  0.01658402     0.19500
C598        C  0.87471335  0.46436731  0.07280188     0.24600
C599        C  0.85507847  0.43073535  0.10697889    -0.23400
C600        C  0.83731077  0.38738419  0.08422865     0.19500
F601        F  0.81899230  0.35301080  0.11569811    -0.13400
F602        F  0.81892764  0.33772158  0.00842254    -0.15800
F603        F  0.89308748  0.50585153  0.09339298    -0.15800
F604        F  0.89166707  0.49163470  0.98456299    -0.13400
C605        C  0.70431511  0.45129027  0.84114556     0.24600
C606        C  0.72742767  0.43479863  0.79925167    -0.23500
C607        C  0.71203966  0.42516230  0.74781856     0.19500
C608        C  0.67438731  0.42912396  0.73905883     0.24600
C609        C  0.65100334  0.44315784  0.78141710    -0.23400
C610        C  0.66646900  0.45529436  0.83234112     0.19500
F611        F  0.64498151  0.46985900  0.87410476    -0.13400
F612        F  0.71809157  0.46242853  0.89105623    -0.15800
F613        F  0.66088966  0.41851782  0.68888038    -0.15800
F614        F  0.73336674  0.41114921  0.70570820    -0.13400
C615        C  0.82508490  0.21083638  0.77670454     0.24600
C616        C  0.84920511  0.23894620  0.81044826    -0.23500
C617        C  0.87508838  0.21119894  0.84190236     0.19500
C618        C  0.87607143  0.15667961  0.84071749     0.24600
C619        C  0.85145790  0.12871537  0.80763085    -0.23400
C620        C  0.82643319  0.15653005  0.77495828     0.19500
F621        F  0.80194553  0.13115029  0.74287500    -0.13400
F622        F  0.79929530  0.23566765  0.74628990    -0.15800
F623        F  0.90062424  0.13134080  0.87289187    -0.15800
F624        F  0.89862429  0.23660495  0.87546435    -0.13400
loop_ 
_geom_bond_atom_site_label_1 
_geom_bond_atom_site_label_2 
_geom_bond_distance 
_geom_bond_site_symmetry_2 
_ccdc_geom_bond_type 
In1           O3   2.242       .  S
In1           O4   2.261       .  S
In1          O12   2.250       .  S
In1           O6   2.258       .  S
In1           O8   2.253       .  S
In1           O9   2.271       .  S
In1          O10   2.260       .  S
In1          O13   2.216       .  S
C2            O8   1.258       .  A
C2           O10   1.259       .  A
C2           C55   1.478       .  S
O3           C11   1.261       .  A
O4           C11   1.259       .  A
C5           O12   1.261       .  A
C5            O6   1.261       .  A
C5          C616   1.487       .  S
C7            O9   1.264       .  A
C7           O13   1.259       .  A
C7          C596   1.481       .  S
C11         C606   1.485       .  S
In14         O16   2.239   1_565  S
In14         O17   2.256   1_565  S
In14         O25   2.239       .  S
In14         O19   2.258       .  S
In14         O21   2.252       .  S
In14         O22   2.236       .  S
In14         O23   2.258       .  S
In14         O26   2.257       .  S
C15          O21   1.257       .  A
C15          O23   1.257       .  A
C15          C70   1.475       .  S
O16          C24   1.261       .  A
O17          C24   1.261       .  A
C18          O25   1.260       .  A
C18          O19   1.262       .  A
C18         C586   1.485       .  S
C20          O22   1.260       .  A
C20          O26   1.262       .  A
C20         C579   1.483       .  S
C24         C619   1.484       .  S
In27         O29   2.242       .  S
In27         O30   2.260       .  S
In27         O38   2.251       .  S
In27         O32   2.234       .  S
In27         O34   2.260       .  S
In27         O35   2.241       .  S
In27         O36   2.248   1_455  S
In27         O39   2.254       .  S
C28          O34   1.258   1_655  A
C28          O36   1.258       .  A
C28          C58   1.475       .  S
O29          C37   1.260       .  A
O30          C37   1.262       .  A
C31          O38   1.261       .  A
C31          O32   1.261       .  A
C31         C556   1.482       .  S
C33          O35   1.259       .  A
C33          O39   1.261       .  A
C33         C549   1.483       .  S
C37         C566   1.487       .  S
In40         O42   2.259       .  S
In40         O43   2.233       .  S
In40         O51   2.261   1_565  S
In40         O45   2.257   1_565  S
In40         O47   2.259   1_455  S
In40         O48   2.251       .  S
In40         O49   2.267       .  S
In40         O52   2.247       .  S
C41          O47   1.257       .  A
C41          O49   1.256   1_655  A
C41          C67   1.478       .  S
O42          C50   1.264       .  A
O43          C50   1.260       .  A
C44          O51   1.261       .  A
C44          O45   1.260       .  A
C44         C569   1.486       .  S
C46          O48   1.261       .  A
C46          O52   1.261       .  A
C46         C529   1.485       .  S
C50         C539   1.483       .  S
C53          C54   1.548       .  S
C53          C59   1.535       .  S
C53          C57   1.547       .  S
C53         C516   1.540       .  S
C54          H61   1.085       .  S
C54          C55   1.367       .  D
C55          C56   1.534       .  S
C56          C60   1.541       .  S
C56          C58   1.534       .  S
C56          H62   1.110       .  S
C57          H63   1.085       .  S
C57          C58   1.367       .  D
C59          H64   1.086       .  S
C59          C60   1.367       .  D
C60         C509   1.492       .  S
C65          C66   1.551       .  S
C65          C71   1.535       .  S
C65          C69   1.544       .  S
C65         C519   1.540       .  S
C66          H73   1.085       .  S
C66          C67   1.370       .  D
C67          C68   1.532       .  S
C68          C72   1.542       .  S
C68          C70   1.534       .  S
C68          H74   1.110       .  S
C69          H75   1.085       .  S
C69          C70   1.364       .  D
C71          H76   1.086       .  S
C71          C72   1.366       .  D
C72         C496   1.490       .  S
In77         O79   2.257       .  S
In77         O80   2.236       .  S
In77         O88   2.239       .  S
In77         O82   2.252       .  S
In77         O84   2.249       .  S
In77         O85   2.236       .  S
In77         O86   2.255       .  S
In77         O89   2.254       .  S
C78          O84   1.258       .  A
C78          O86   1.256       .  A
C78         C105   1.473       .  S
O79          C87   1.262       .  A
O80          C87   1.261       .  A
C81          O88   1.261       .  A
C81          O82   1.261       .  A
C81         C486   1.483       .  S
C83          O85   1.260       .  A
C83          O89   1.260       .  A
C83         C476   1.482       .  S
C87         C609   1.485       .  S
In90         O92   2.247       .  S
In90         O93   2.239       .  S
In90        O101   2.251   1_545  S
In90         O95   2.252       .  S
In90         O97   2.247   1_545  S
In90         O98   2.222       .  S
In90         O99   2.250       .  S
In90        O102   2.272   1_545  S
C91          O97   1.260       .  A
C91          O99   1.259   1_565  A
C91         C120   1.474       .  S
O92         C100   1.262       .  A
O93         C100   1.260       .  A
C94         O101   1.258       .  A
C94          O95   1.260   1_565  A
C94         C589   1.485       .  S
C96          O98   1.258       .  A
C96         O102   1.263   1_545  A
C96         C469   1.484   1_545  S
C100        C489   1.481       .  S
C103        C104   1.547       .  S
C103        C109   1.536       .  S
C103        C107   1.547       .  S
C103        C456   1.540       .  S
C104        H111   1.085       .  S
C104        C105   1.368       .  D
C105        C106   1.532       .  S
C106        C110   1.540       .  S
C106        C108   1.532       .  S
C106        H112   1.110       .  S
C107        H113   1.085       .  S
C107        C108   1.365       .  D
C108        C128   1.474       .  S
C109        H114   1.086       .  S
C109        C110   1.368       .  D
C110        C446   1.492       .  S
C115        C116   1.552       .  S
C115        C121   1.536       .  S
C115        C119   1.544       .  S
C115        C459   1.541       .  S
C116        H123   1.085       .  S
C116        C117   1.369       .  D
C117        C141   1.478       .  S
C117        C118   1.532       .  S
C118        C122   1.538       .  S
C118        C120   1.535       .  S
C118        H124   1.111       .  S
C119        H125   1.085       .  S
C119        C120   1.366       .  D
C121        H126   1.086       .  S
C121        C122   1.366       .  D
C122        C436   1.488       .  S
In127       O129   2.243       .  S
In127       O130   2.245       .  S
In127       O138   2.231       .  S
In127       O132   2.259       .  S
In127       O134   2.255       .  S
In127       O135   2.247       .  S
In127       O136   2.257       .  S
In127       O139   2.252       .  S
C128        O134   1.256       .  A
C128        O136   1.256       .  A
O129        C137   1.263       .  A
O130        C137   1.264       .  A
C131        O138   1.259       .  A
C131        O132   1.263       .  A
C131        C559   1.482       .  S
C133        O135   1.259       .  A
C133        O139   1.259       .  A
C133        C416   1.483       .  S
C137        C426   1.485       .  S
In140       O142   2.260       .  S
In140       O143   2.240   1_545  S
In140       O151   2.253       .  S
In140       O145   2.247       .  S
In140       O147   2.250       .  S
In140       O148   2.265   1_545  S
In140       O149   2.260   1_545  S
In140       O152   2.232       .  S
C141        O147   1.260   1_565  A
C141        O149   1.259       .  A
O142        C150   1.262   1_545  A
O143        C150   1.257       .  A
C144        O151   1.262       .  A
C144        O145   1.261       .  A
C144        C429   1.487       .  S
C146        O148   1.262   1_545  A
C146        O152   1.258       .  A
C146        C406   1.484       .  S
C150        C536   1.483       .  S
In153       O155   2.227       .  S
In153       O156   2.252       .  S
In153       O164   2.226       .  S
In153       O158   2.253       .  S
In153       O160   2.244       .  S
In153       O161   2.253       .  S
In153       O162   2.253       .  S
In153       O165   2.231       .  S
C154        O160   1.256       .  A
C154        O162   1.256       .  A
C154        C219   1.469       .  S
O155        C163   1.259       .  A
O156        C163   1.263       .  A
C157        O164   1.262       .  A
C157        O158   1.263       .  A
C157        C396   1.482       .  S
C159        O161   1.260       .  A
C159        O165   1.260       .  A
C159        C599   1.481       .  S
C163        C386   1.480       .  S
In166       O168   2.254       .  S
In166       O169   2.240       .  S
In166       O177   2.239       .  S
In166       O171   2.256       .  S
In166       O173   2.258       .  S
In166       O174   2.240       .  S
In166       O175   2.239       .  S
In166       O178   2.261       .  S
C167        O173   1.259       .  A
C167        O175   1.259       .  A
C167        C210   1.473       .  S
O168        C176   1.261       .  A
O169        C176   1.260       .  A
C170        O177   1.259       .  A
C170        O171   1.262       .  A
C170        C376   1.485       .  S
C172        O174   1.259       .  A
C172        O178   1.261       .  A
C172        C576   1.485       .  S
C176        C399   1.482       .  S
In179       O181   2.250       .  S
In179       O182   2.242       .  S
In179       O190   2.228       .  S
In179       O184   2.256       .  S
In179       O186   2.264       .  S
In179       O187   2.235       .  S
In179       O188   2.268   1_455  S
In179       O191   2.252       .  S
C180        O186   1.256   1_655  A
C180        O188   1.258       .  A
C180        C222   1.481       .  S
O181        C189   1.263       .  A
O182        C189   1.261       .  A
C183        O190   1.257       .  A
C183        O184   1.263       .  A
C183        C356   1.480       .  S
C185        O187   1.259       .  A
C185        O191   1.261       .  A
C185        C546   1.482       .  S
C189        C366   1.485       .  S
In192       O194   2.247       .  S
In192       O195   2.254       .  S
In192       O203   2.242       .  S
In192       O197   2.238       .  S
In192       O199   2.251   1_455  S
In192       O200   2.233       .  S
In192       O201   2.262       .  S
In192       O204   2.262       .  S
C193        O199   1.257       .  A
C193        O201   1.259   1_655  A
C193        C207   1.477       .  S
O194        C202   1.260       .  A
O195        C202   1.259       .  A
C196        O203   1.261       .  A
C196        O197   1.261       .  A
C196        C369   1.480       .  S
C198        O200   1.259       .  A
C198        O204   1.264       .  A
C198        C526   1.485       .  S
C202        C346   1.480       .  S
C205        C206   1.546       .  S
C205        C211   1.534       .  S
C205        C209   1.550       .  S
C205        C339   1.539       .  S
C206        H213   1.085       .  S
C206        C207   1.366   1_545  D
C207        C208   1.535       .  S
C208        C212   1.539       .  S
C208        C210   1.531       .  S
C208        H214   1.111       .  S
C209        H215   1.085       .  S
C209        C210   1.368   1_545  D
C211        H216   1.086       .  S
C211        C212   1.365   1_545  D
C212        C499   1.490       .  S
C217        C218   1.546       .  S
C217        C223   1.537       .  S
C217        C221   1.548       .  S
C217        C336   1.541       .  S
C218        H225   1.085       .  S
C218        C219   1.365       .  D
C219        C220   1.531       .  S
C220        C224   1.539       .  S
C220        C222   1.535       .  S
C220        H226   1.110       .  S
C221        H227   1.085       .  S
C221        C222   1.368       .  D
C223        H228   1.086       .  S
C223        C224   1.368       .  D
C224        C506   1.491       .  S
In229       O231   2.243       .  S
In229       O232   2.250       .  S
In229       O240   2.259       .  S
In229       O234   2.245       .  S
In229       O236   2.260       .  S
In229       O237   2.261       .  S
In229       O238   2.259   1_565  S
In229       O241   2.241       .  S
C230        O236   1.257   1_545  A
C230        O238   1.255       .  A
C230        C269   1.476       .  S
O231        C239   1.261       .  A
O232        C239   1.262       .  A
C233        O240   1.261       .  A
C233        O234   1.260       .  A
C233        C326   1.486       .  S
C235        O237   1.260       .  A
C235        O241   1.260       .  A
C235        C409   1.485       .  S
C239        C349   1.483       .  S
In242       O244   2.245       .  S
In242       O245   2.243       .  S
In242       O253   2.236       .  S
In242       O247   2.250       .  S
In242       O249   2.258       .  S
In242       O250   2.262       .  S
In242       O251   2.251       .  S
In242       O254   2.234       .  S
C243        O249   1.257       .  A
C243        O251   1.257       .  A
C243        C260   1.474       .  S
O244        C252   1.263       .  A
O245        C252   1.261       .  A
C246        O253   1.258       .  A
C246        O247   1.262       .  A
C246        C359   1.480       .  S
C248        O250   1.264       .  A
C248        O254   1.259       .  A
C248        C419   1.485       .  S
C252        C329   1.484       .  S
C255        C256   1.541       .  S
C255        C261   1.543       .  S
C255        C259   1.548       .  S
C255        C316   1.540       .  S
C256        H263   1.086       .  S
C256        C257   1.368       .  D
C257        C280   1.472       .  S
C257        C258   1.530       .  S
C258        C262   1.539       .  S
C258        C260   1.531       .  S
C258        H264   1.110       .  S
C259        H265   1.083       .  S
C259        C260   1.365       .  D
C261        H266   1.085       .  S
C261        C262   1.367       .  D
C262        C449   1.490       .  S
C267        C268   1.549       .  S
C267        C273   1.544       .  S
C267        C271   1.539       .  S
C267        C319   1.539       .  S
C268        H275   1.083       .  S
C268        C269   1.367       .  D
C269        C270   1.532       .  S
C270        C274   1.539       .  S
C270        C272   1.531       .  S
C270        H276   1.111   1_545  S
C271        H277   1.086       .  S
C271        C272   1.365       .  D
C272        C293   1.473       .  S
C273        H278   1.085       .  S
C273        C274   1.367       .  D
C274        C439   1.488       .  S
In279       O281   2.245       .  S
In279       O282   2.238       .  S
In279       O290   2.243       .  S
In279       O284   2.244       .  S
In279       O286   2.235       .  S
In279       O287   2.217       .  S
In279       O288   2.257       .  S
In279       O291   2.260       .  S
C280        O286   1.259       .  A
C280        O288   1.259       .  A
O281        C289   1.261       .  A
O282        C289   1.259       .  A
C283        O290   1.260       .  A
C283        O284   1.261       .  A
C283        C306   1.482       .  S
C285        O287   1.259       .  A
C285        O291   1.263       .  A
C285        C479   1.480       .  S
C289        C389   1.480       .  S
In292       O294   2.244       .  S
In292       O295   2.243       .  S
In292       O303   2.249       .  S
In292       O297   2.247       .  S
In292       O299   2.262   1_565  S
In292       O300   2.248       .  S
In292       O301   2.251       .  S
In292       O304   2.240       .  S
C293        O299   1.256       .  A
C293        O301   1.256   1_545  A
O294        C302   1.261       .  A
O295        C302   1.260       .  A
C296        O303   1.260       .  A
C296        O297   1.262       .  A
C296        C379   1.484       .  S
C298        O300   1.259       .  A
C298        O304   1.261       .  A
C298        C466   1.481       .  S
C302        C309   1.482       .  S
C305        C306   1.408       .  A
C305        C310   1.398       .  A
C305        F312   1.358       .  S
C306        C307   1.409       .  A
C307        C308   1.399       .  A
C307        F314   1.358       .  S
C308        C309   1.408       .  A
C308        F313   1.358       .  S
C309        C310   1.408       .  A
C310        F311   1.358       .  S
C315        C316   1.413       .  A
C315        C320   1.401       .  A
C315        F322   1.357       .  S
C316        C317   1.412       .  A
C317        C318   1.402       .  A
C317        F324   1.357       .  S
C318        C319   1.413       .  A
C318        F323   1.358       .  S
C319        C320   1.414       .  A
C320        F321   1.356       .  S
C325        C326   1.409       .  A
C325        C330   1.399       .  A
C325        F332   1.358       .  S
C326        C327   1.409       .  A
C327        C328   1.401       .  A
C327        F334   1.358       .  S
C328        C329   1.409       .  A
C328        F333   1.358       .  S
C329        C330   1.407       .  A
C330        F331   1.358       .  S
C335        C336   1.412       .  A
C335        C340   1.402       .  A
C335        F342   1.357   1_655  S
C336        C337   1.414       .  A
C337        C338   1.401       .  A
C337        F344   1.357       .  S
C338        C339   1.413       .  A
C338        F343   1.357       .  S
C339        C340   1.415       .  A
C340        F341   1.357   1_655  S
C345        C346   1.408       .  A
C345        C350   1.400       .  A
C345        F352   1.358       .  S
C346        C347   1.405       .  A
C347        C348   1.398       .  A
C347        F354   1.358       .  S
C348        C349   1.408       .  A
C348        F353   1.358       .  S
C349        C350   1.409       .  A
C350        F351   1.358       .  S
C355        C356   1.410       .  A
C355        C360   1.398       .  A
C355        F362   1.358       .  S
C356        C357   1.406       .  A
C357        C358   1.397       .  A
C357        F364   1.358       .  S
C358        C359   1.409       .  A
C358        F363   1.358       .  S
C359        C360   1.406       .  A
C360        F361   1.358       .  S
C365        C366   1.409       .  A
C365        C370   1.399       .  A
C365        F372   1.357       .  S
C366        C367   1.410       .  A
C367        C368   1.399       .  A
C367        F374   1.358   1_455  S
C368        C369   1.408       .  A
C368        F373   1.358   1_455  S
C369        C370   1.407       .  A
C370        F371   1.358       .  S
C375        C376   1.409       .  A
C375        C380   1.397       .  A
C375        F382   1.358       .  S
C376        C377   1.409       .  A
C377        C378   1.401       .  A
C377        F384   1.358       .  S
C378        C379   1.410       .  A
C378        F383   1.358       .  S
C379        C380   1.407       .  A
C380        F381   1.358       .  S
C385        C386   1.407       .  A
C385        C390   1.398       .  A
C385        F392   1.358       .  S
C386        C387   1.409       .  A
C387        C388   1.397       .  A
C387        F394   1.358       .  S
C388        C389   1.407       .  A
C388        F393   1.358       .  S
C389        C390   1.409       .  A
C390        F391   1.358       .  S
C395        C396   1.409       .  A
C395        C400   1.401       .  A
C395        F402   1.358       .  S
C396        C397   1.407       .  A
C397        C398   1.396       .  A
C397        F404   1.358       .  S
C398        C399   1.407       .  A
C398        F403   1.358       .  S
C399        C400   1.409       .  A
C400        F401   1.358       .  S
C405        C406   1.409       .  A
C405        C410   1.396       .  A
C405        F412   1.358       .  S
C406        C407   1.409   1_545  A
C407        C408   1.403       .  A
C407        F414   1.358       .  S
C408        C409   1.410       .  A
C408        F413   1.358       .  S
C409        C410   1.407   1_565  A
C410        F411   1.358       .  S
C415        C416   1.408       .  A
C415        C420   1.399       .  A
C415        F422   1.358       .  S
C416        C417   1.408       .  A
C417        C418   1.400       .  A
C417        F424   1.357       .  S
C418        C419   1.407       .  A
C418        F423   1.357       .  S
C419        C420   1.410       .  A
C420        F421   1.358       .  S
C425        C426   1.408       .  A
C425        C430   1.401       .  A
C425        F432   1.357       .  S
C426        C427   1.408       .  A
C427        C428   1.400       .  A
C427        F434   1.358       .  S
C428        C429   1.409       .  A
C428        F433   1.358       .  S
C429        C430   1.409       .  A
C430        F431   1.357       .  S
C435        C436   1.407   1_554  A
C435        C440   1.401       .  A
C435        F442   1.358       .  S
C436        C437   1.407       .  A
C437        C438   1.402   1_566  A
C437        F444   1.358       .  S
C438        C439   1.408       .  A
C438        F443   1.358       .  S
C439        C440   1.406   1_545  A
C440        F441   1.358       .  S
C445        C446   1.410   1_554  A
C445        C450   1.403       .  A
C445        F452   1.358       .  S
C446        C447   1.407       .  A
C447        C448   1.399   1_556  A
C447        F454   1.357       .  S
C448        C449   1.407       .  A
C448        F453   1.358       .  S
C449        C450   1.407       .  A
C450        F451   1.358       .  S
C455        C456   1.412       .  A
C455        C460   1.403       .  A
C455        F462   1.357       .  S
C456        C457   1.414       .  A
C457        C458   1.401       .  A
C457        F464   1.357       .  S
C458        C459   1.412       .  A
C458        F463   1.357       .  S
C459        C460   1.416       .  A
C460        F461   1.357       .  S
C465        C466   1.405   1_545  A
C465        C470   1.395       .  A
C465        F472   1.358       .  S
C466        C467   1.410       .  A
C467        C468   1.402       .  A
C467        F474   1.358       .  S
C468        C469   1.408       .  A
C468        F473   1.358       .  S
C469        C470   1.409   1_565  A
C470        F471   1.358       .  S
C475        C476   1.410       .  A
C475        C480   1.401       .  A
C475        F482   1.357       .  S
C476        C477   1.407       .  A
C477        C478   1.394       .  A
C477        F484   1.358       .  S
C478        C479   1.408       .  A
C478        F483   1.358       .  S
C479        C480   1.408       .  A
C480        F481   1.358       .  S
C485        C486   1.408       .  A
C485        C490   1.399       .  A
C485        F492   1.358       .  S
C486        C487   1.408       .  A
C487        C488   1.398       .  A
C487        F494   1.358       .  S
C488        C489   1.407       .  A
C488        F493   1.358       .  S
C489        C490   1.409       .  A
C490        F491   1.358       .  S
C495        C496   1.407       .  A
C495        C500   1.399       .  A
C495        F502   1.357       .  S
C496        C497   1.409       .  A
C497        C498   1.403       .  A
C497        F504   1.358       .  S
C498        C499   1.408       .  A
C498        F503   1.358       .  S
C499        C500   1.407       .  A
C500        F501   1.358   1_565  S
C505        C506   1.407       .  A
C505        C510   1.402       .  A
C505        F512   1.358       .  S
C506        C507   1.408       .  A
C507        C508   1.401       .  A
C507        F514   1.358       .  S
C508        C509   1.409       .  A
C508        F513   1.358       .  S
C509        C510   1.408       .  A
C510        F511   1.357       .  S
C515        C516   1.413       .  A
C515        C520   1.401       .  A
C515        F522   1.357       .  S
C516        C517   1.413       .  A
C517        C518   1.402       .  A
C517        F524   1.357       .  S
C518        C519   1.412       .  A
C518        F523   1.357       .  S
C519        C520   1.415       .  A
C520        F521   1.357       .  S
C525        C526   1.407       .  A
C525        C530   1.400       .  A
C525        F532   1.357   1_455  S
C526        C527   1.410       .  A
C527        C528   1.399   1_554  A
C527        F534   1.358       .  S
C528        C529   1.408       .  A
C528        F533   1.358       .  S
C529        C530   1.409   1_556  A
C530        F531   1.357   1_454  S
C535        C536   1.406       .  A
C535        C540   1.399       .  A
C535        F542   1.358       .  S
C536        C537   1.410       .  A
C537        C538   1.400       .  A
C537        F544   1.358       .  S
C538        C539   1.407       .  A
C538        F543   1.358       .  S
C539        C540   1.409       .  A
C540        F541   1.358       .  S
C545        C546   1.408       .  A
C545        C550   1.399       .  A
C545        F552   1.358   1_455  S
C546        C547   1.409       .  A
C547        C548   1.397       .  A
C547        F554   1.358       .  S
C548        C549   1.408   1_554  A
C548        F553   1.358       .  S
C549        C550   1.408   1_556  A
C550        F551   1.358   1_454  S
C555        C556   1.409       .  A
C555        C560   1.401       .  A
C555        F562   1.358       .  S
C556        C557   1.407       .  A
C557        C558   1.395       .  A
C557        F564   1.358       .  S
C558        C559   1.408       .  A
C558        F563   1.358       .  S
C559        C560   1.408       .  A
C560        F561   1.358       .  S
C565        C566   1.410       .  A
C565        C570   1.400       .  A
C565        F572   1.358       .  S
C566        C567   1.409       .  A
C567        C568   1.403       .  A
C567        F574   1.357   1_455  S
C568        C569   1.407       .  A
C568        F573   1.357   1_455  S
C569        C570   1.407       .  A
C570        F571   1.358       .  S
C575        C576   1.409       .  A
C575        C580   1.402       .  A
C575        F582   1.358       .  S
C576        C577   1.408       .  A
C577        C578   1.397   1_554  A
C577        F584   1.358       .  S
C578        C579   1.407       .  A
C578        F583   1.358       .  S
C579        C580   1.409   1_556  A
C580        F581   1.358   1_554  S
C585        C586   1.408       .  A
C585        C590   1.401       .  A
C585        F592   1.358       .  S
C586        C587   1.409       .  A
C587        C588   1.398       .  A
C587        F594   1.358       .  S
C588        C589   1.407       .  A
C588        F593   1.358       .  S
C589        C590   1.410       .  A
C590        F591   1.358       .  S
C595        C596   1.408   1_554  A
C595        C600   1.393       .  A
C595        F602   1.358       .  S
C596        C597   1.408   1_556  A
C597        C598   1.403       .  A
C597        F604   1.358   1_554  S
C598        C599   1.410       .  A
C598        F603   1.358       .  S
C599        C600   1.406       .  A
C600        F601   1.358       .  S
C605        C606   1.411       .  A
C605        C610   1.403       .  A
C605        F612   1.358       .  S
C606        C607   1.407       .  A
C607        C608   1.396       .  A
C607        F614   1.357       .  S
C608        C609   1.408       .  A
C608        F613   1.358       .  S
C609        C610   1.409       .  A
C610        F611   1.358       .  S
C615        C616   1.408       .  A
C615        C620   1.398       .  A
C615        F622   1.357       .  S
C616        C617   1.410       .  A
C617        C618   1.402       .  A
C617        F624   1.358       .  S
C618        C619   1.408       .  A
C618        F623   1.358       .  S
C619        C620   1.407       .  A
C620        F621   1.358       .  S
