geometry optimzed in LAMMPS
_audit_creation_date              2020-11-30 
_audit_creation_method            'lammps2cif' 
_symmetry_space_group_name_H-M    'P1' 
_symmetry_Int_Tables_number       1 
_symmetry_cell_setting            triclinic 
loop_ 
_symmetry_equiv_pos_as_xyz 
  x,y,z 
_cell_length_a                    45.12374769 
_cell_length_b                    45.84486196616891 
_cell_length_c                    45.933218869910256 
_cell_angle_alpha                 90.18242100144161 
_cell_angle_beta                  90.5072368106517 
_cell_angle_gamma                 90.36584383215795 
loop_ 
_atom_site_label 
_atom_site_type_symbol 
_atom_site_fract_x 
_atom_site_fract_y 
_atom_site_fract_z 
_atom_site_charge 
O1          O  0.52267523  0.41586497  0.95948926    -0.56300
C2          C  0.44301161  0.40491747  0.94636973     0.76400
O3          O  0.49834562  0.36194743  0.87979720    -0.57400
C4          C  0.54845813  0.40837428  0.95177193     0.76300
C5          C  0.49808477  0.33008098  0.97329662     0.78700
Cd6        Cd  0.49740415  0.37752714  0.93252412     1.37500
O7          O  0.46720699  0.41289972  0.95829984    -0.56300
O8          O  0.52178537  0.33940408  0.96204437    -0.55100
C9          C  0.49875231  0.38798902  0.87019265     0.78700
O10         O  0.47435224  0.33766444  0.96064373    -0.57400
O11         O  0.44410591  0.38326913  0.92921756    -0.55900
O12         O  0.55039352  0.38560810  0.93619643    -0.55900
O13         O  0.49946291  0.40797435  0.88907599    -0.55100
O14         O  0.35685772  0.51215438  0.95910662    -0.56300
C15         C  0.36328060  0.58897000  0.94741343     0.76400
O16         O  0.30904323  0.54431461  0.87751374    -0.57400
C17         C  0.35140803  0.48876364  0.94529571     0.76300
C18         C  0.27719989  0.54866871  0.97168545     0.78700
Cd19       Cd  0.32503648  0.54276674  0.93047879     1.37500
O20         O  0.36873865  0.56282699  0.95437141    -0.56300
O21         O  0.28750213  0.57058283  0.95837819    -0.55100
C22         C  0.33556121  0.54589879  0.86823401     0.78700
O23         O  0.28414900  0.52407833  0.96125810    -0.57400
O24         O  0.33898898  0.59360175  0.93422754    -0.55900
O25         O  0.33165316  0.48994041  0.92550067    -0.55900
O26         O  0.35571686  0.54617834  0.88732292    -0.55100
O27         O  0.47841934  0.67433754  0.95449097    -0.56300
C28         C  0.55266708  0.69331603  0.94816245     0.76400
O29         O  0.49708191  0.73332344  0.87830286    -0.57400
C30         C  0.45164788  0.67896651  0.94755937     0.76300
C31         C  0.49017013  0.76426287  0.97357419     0.78700
Cd32       Cd  0.49767894  0.71768154  0.93138161     1.37500
O33         O  0.52826911  0.68526106  0.95899256    -0.56300
O34         O  0.46828323  0.75390218  0.95942912    -0.55100
C35         C  0.49637163  0.70728964  0.86846229     0.78700
O36         O  0.51542360  0.75783261  0.96375319    -0.57400
O37         O  0.55187331  0.71461291  0.93059370    -0.55900
O38         O  0.44614148  0.70272867  0.93460171    -0.55900
O39         O  0.49630155  0.68739158  0.88726245    -0.55100
O40         O  0.62899436  0.57988366  0.95732557    -0.56300
C41         C  0.63332419  0.49900345  0.94889182     0.76400
O42         O  0.67994480  0.54840327  0.87911201    -0.57400
C43         C  0.63737560  0.60385359  0.94629781     0.76300
C44         C  0.71261169  0.54806703  0.97321111     0.78700
Cd45       Cd  0.66423540  0.54997987  0.93151076     1.37500
O46         O  0.62617588  0.52395172  0.95851414    -0.56300
O47         O  0.70129203  0.52504740  0.96262054    -0.55100
C48         C  0.65351644  0.54852498  0.86906471     0.78700
O49         O  0.70650187  0.57136306  0.95977493    -0.57400
O50         O  0.65503452  0.49809803  0.93161032    -0.55900
O51         O  0.65902061  0.60281433  0.92896568    -0.55900
O52         O  0.63309749  0.54890186  0.88761091    -0.55100
O53         O  0.46842430  0.97331780  0.40264103    -0.56300
C54         C  0.54688483  0.96426843  0.39428064     0.76400
O55         O  0.49336666  0.89373205  0.34806122    -0.57400
C56         C  0.44337810  0.96200777  0.39676726     0.76300
C57         C  0.49298375  0.98699081  0.31627389     0.78700
Cd58       Cd  0.49436734  0.94669798  0.36455196     1.37500
O59         O  0.52186530  0.97465631  0.40085458    -0.56300
O60         O  0.51687322  0.97508766  0.32438320    -0.55100
C61         C  0.49443151  0.88363814  0.37384877     0.78700
O62         O  0.46947285  0.97545087  0.32583722    -0.57400
O63         O  0.54750384  0.94697171  0.37271732    -0.55900
O64         O  0.44200049  0.94512790  0.37489575    -0.55900
O65         O  0.49583370  0.90227999  0.39402093    -0.55100
O66         O  0.36720193  0.97291373  0.56147819    -0.56300
C67         C  0.35579544  0.96350716  0.48516533     0.76400
O68         O  0.31113252  0.89404942  0.53768820    -0.57400
C69         C  0.36028242  0.96517038  0.58699032     0.76300
C70         C  0.27803812  0.98866766  0.53591901     0.78700
Cd71       Cd  0.32677950  0.94759073  0.53713625     1.37500
O72         O  0.36266993  0.97548805  0.50921043    -0.56300
O73         O  0.28837560  0.97921561  0.55976881    -0.55100
C74         C  0.33752010  0.88452590  0.53563158     0.78700
O75         O  0.28542247  0.97448611  0.51347684    -0.57400
O76         O  0.33396715  0.94600396  0.48523721    -0.55900
O77         O  0.33679405  0.95004170  0.58944016    -0.55900
O78         O  0.35765105  0.90365432  0.53504270    -0.55100
O79         O  0.47464959  0.97531548  0.67041396    -0.56300
C80         C  0.55250713  0.95985880  0.67674137     0.76400
O81         O  0.47510278  0.96824819  0.74890673    -0.57400
C82         C  0.44894384  0.96533185  0.67528922     0.76300
C83         C  0.49962025  0.88272038  0.69315614     0.78700
Cd84       Cd  0.49970535  0.94529189  0.70628000     1.37500
O85         O  0.52787144  0.97135268  0.67024830    -0.56300
O86         O  0.49582035  0.90216731  0.67418930    -0.55100
C87         C  0.49660800  0.98518253  0.75492495     0.78700
O88         O  0.50273053  0.89172579  0.71930549    -0.57400
O89         O  0.55299900  0.94314040  0.69868928    -0.55900
O90         O  0.44670839  0.94698383  0.69574496    -0.55900
O91         O  0.52117183  0.97847854  0.74374195    -0.55100
O92         O  0.62624612  0.96909358  0.50757413    -0.56300
C93         C  0.63638174  0.95691467  0.58563917     0.76400
O94         O  0.68109168  0.89036160  0.53224694    -0.57400
C95         C  0.63499818  0.96214081  0.48234035     0.76300
C96         C  0.71107989  0.98628904  0.53484791     0.78700
Cd97       Cd  0.66496139  0.94292819  0.53300484     1.37500
O98         O  0.62701827  0.96624405  0.56129717    -0.56300
O99         O  0.70398510  0.97400080  0.51104972    -0.55100
C100        C  0.65468214  0.88034476  0.53114137     0.78700
O101        O  0.70263753  0.97341831  0.55765928    -0.57400
O102        O  0.65979583  0.94179187  0.58549973    -0.55900
O103        O  0.65854777  0.94729447  0.48082685    -0.55900
O104        O  0.63428333  0.89894527  0.53019929    -0.55100
O105        O  0.92569979  0.51526531  0.66924450    -0.56300
C106        C  0.91431218  0.59097690  0.66978717     0.76400
O107        O  0.84298789  0.54526462  0.71822226    -0.57400
C108        C  0.91620870  0.49030132  0.67643067     0.76300
C109        C  0.93767968  0.54780672  0.75254190     0.78700
Cd110      Cd  0.89692088  0.54254157  0.70366566     1.37500
O111        O  0.92279999  0.56541674  0.66368801    -0.56300
O112        O  0.92652334  0.56994719  0.74042556    -0.55100
C113        C  0.83298352  0.54438242  0.69220971     0.78700
O114        O  0.92526082  0.52366282  0.74644623    -0.57400
O115        O  0.89921615  0.59396473  0.69272505    -0.55900
O116        O  0.89861074  0.48931733  0.69780965    -0.55900
O117        O  0.85205999  0.54181775  0.67255879    -0.55100
O118        O  0.92682380  0.67849957  0.50276525    -0.56300
C119        C  0.91387110  0.67748704  0.58074251     0.76400
O120        O  0.92703059  0.75363371  0.51264681    -0.57400
C121        C  0.91631714  0.68648470  0.47841059     0.76300
C122        C  0.83431353  0.70138701  0.53174676     0.78700
Cd123      Cd  0.89797759  0.71175047  0.53167683     1.37500
O124        O  0.92497355  0.67255461  0.55597041    -0.56300
O125        O  0.85302919  0.68126871  0.52937089    -0.55100
C126        C  0.93808055  0.76091112  0.53702693     0.78700
O127        O  0.84470485  0.72724786  0.53325704    -0.57400
O128        O  0.89673078  0.69915763  0.58260611    -0.55900
O129        O  0.89803034  0.70736447  0.47874906    -0.55900
O130        O  0.92574912  0.74986184  0.55905419    -0.55100
O131        O  0.92414927  0.41577143  0.50960709    -0.56300
C132        C  0.91424214  0.40658154  0.58700093     0.76400
O133        O  0.84041946  0.36573275  0.53569637    -0.57400
C134        C  0.91351073  0.41045909  0.48452372     0.76300
C135        C  0.93181413  0.32913140  0.53199248     0.78700
Cd136      Cd  0.89420077  0.37973343  0.53457801     1.37500
O137        O  0.92306372  0.41512472  0.56231759    -0.56300
O138        O  0.92328442  0.33963342  0.55594900    -0.55100
C139        C  0.83089009  0.39178471  0.53470945     0.78700
O140        O  0.91787333  0.33773910  0.50961285    -0.57400
O141        O  0.89671546  0.38486918  0.58719635    -0.55900
O142        O  0.89486153  0.38974948  0.48263664    -0.55900
O143        O  0.85032719  0.41161244  0.53409800    -0.55100
O144        O  0.92572409  0.57460558  0.39980177    -0.56300
C145        C  0.91653650  0.49615215  0.39583954     0.76400
O146        O  0.84352270  0.54557864  0.34919968    -0.57400
C147        C  0.91411040  0.59880737  0.39314160     0.76300
C148        C  0.93507263  0.54818921  0.31523062     0.78700
Cd149      Cd  0.89682694  0.54609540  0.36493153     1.37500
O150        O  0.92563915  0.52159580  0.40220967    -0.56300
O151        O  0.92393193  0.52422755  0.32349729    -0.55100
C152        C  0.83343314  0.54468523  0.37496227     0.78700
O153        O  0.92347029  0.57090149  0.32565265    -0.57400
O154        O  0.89975577  0.49380911  0.37366851    -0.55900
O155        O  0.89487584  0.59838216  0.37289335    -0.55900
O156        O  0.85238253  0.54391956  0.39524447    -0.55100
O157        O  0.46066461  0.41519981  0.10694335    -0.56300
C158        C  0.53809967  0.41251038  0.11774837     0.76400
O159        O  0.48868874  0.36313003  0.18643611    -0.57400
C160        C  0.43515987  0.40765221  0.11551663     0.76300
C161        C  0.49127526  0.33169224  0.09283836     0.78700
Cd162      Cd  0.48768502  0.37912361  0.13390429     1.37500
O163        O  0.51223101  0.41844153  0.10879855    -0.56300
O164        O  0.46650683  0.34064631  0.10181385    -0.55100
C165        C  0.48893314  0.38911880  0.19634196     0.78700
O166        O  0.51366427  0.33983952  0.10760417    -0.57400
O167        O  0.54078277  0.38975658  0.13310736    -0.55900
O168        O  0.43379897  0.38556454  0.13206761    -0.55900
O169        O  0.48760489  0.40917562  0.17775627    -0.55100
O170        O  0.36163570  0.57423080  0.11163648    -0.56300
C171        C  0.34931993  0.49607483  0.11549708     0.76400
O172        O  0.30615188  0.54724743  0.18799375    -0.57400
C173        C  0.35411743  0.59877602  0.12190953     0.76300
C174        C  0.27469911  0.55205992  0.09196429     0.78700
Cd175      Cd  0.32171655  0.54790234  0.13493803     1.37500
O176        O  0.35823334  0.52109694  0.10766247    -0.56300
O177        O  0.28556149  0.57456084  0.10408762    -0.55100
C178        C  0.33267402  0.54636796  0.19777756     0.78700
O179        O  0.28033349  0.52812481  0.10447348    -0.57400
O180        O  0.32664132  0.49521575  0.13157484    -0.55900
O181        O  0.33065781  0.59964994  0.13685552    -0.55900
O182        O  0.35276841  0.54581423  0.17893853    -0.55100
O183        O  0.52230560  0.68339200  0.10728849    -0.56300
C184        C  0.44294839  0.68704981  0.12155334     0.76400
O185        O  0.49486402  0.73340647  0.18819658    -0.57400
C186        C  0.54780577  0.69214244  0.11530476     0.76300
C187        C  0.48831953  0.76551800  0.09358292     0.78700
Cd188      Cd  0.49487049  0.71876516  0.13505981     1.37500
O189        O  0.46758332  0.68006243  0.11048422    -0.56300
O190        O  0.46622579  0.75362582  0.10551358    -0.55100
C191        C  0.49507927  0.70717946  0.19737447     0.78700
O192        O  0.51314658  0.76085018  0.10574602    -0.57400
O193        O  0.44247144  0.70974423  0.13734915    -0.55900
O194        O  0.54880364  0.71427123  0.13193698    -0.55900
O195        O  0.49619734  0.68756687  0.17816264    -0.55100
O196        O  0.62048557  0.52686794  0.10703103    -0.56300
C197        C  0.63422355  0.60515060  0.11357445     0.76400
O198        O  0.67729040  0.55020573  0.18527905    -0.57400
C199        C  0.62692480  0.50172242  0.11650685     0.76300
C200        C  0.70965668  0.54895734  0.09229248     0.78700
Cd201      Cd  0.66066849  0.55202627  0.13250178     1.37500
O202        O  0.62456478  0.58040454  0.10541853    -0.56300
O203        O  0.70393248  0.57235097  0.10575747    -0.55100
C204        C  0.65113096  0.55124256  0.19539552     0.78700
O205        O  0.69714532  0.52624268  0.10193279    -0.57400
O206        O  0.65701610  0.60525930  0.12988808    -0.55900
O207        O  0.65011020  0.49988765  0.13215480    -0.55900
O208        O  0.63053808  0.55343998  0.17685871    -0.55100
O209        O  0.46613502  0.12352735  0.66513194    -0.56300
C210        C  0.54556408  0.13398287  0.67765255     0.76400
O211        O  0.49250478  0.20104179  0.71993544    -0.57400
C212        C  0.44070457  0.13316253  0.67154054     0.76300
C213        C  0.48877182  0.10485488  0.75068310     0.78700
Cd214      Cd  0.49162855  0.14800508  0.70456441     1.37500
O215        O  0.52116691  0.12308224  0.66887098    -0.56300
O216        O  0.46565100  0.11562593  0.73940621    -0.55100
C217        C  0.49282109  0.21058749  0.69386542     0.78700
O218        O  0.51268009  0.11824991  0.74515484    -0.57400
O219        O  0.54500249  0.14974592  0.70033187    -0.55900
O220        O  0.43886580  0.14854325  0.69445730    -0.55900
O221        O  0.49193548  0.19158753  0.67401429    -0.55100
O222        O  0.62296152  0.12711616  0.56601196    -0.56300
C223        C  0.62841505  0.13141070  0.48750583     0.76400
O224        O  0.67684359  0.20293059  0.53550725    -0.57400
C225        C  0.63200953  0.13770565  0.59005753     0.76300
C226        C  0.70612725  0.10751729  0.53805611     0.78700
Cd227      Cd  0.65993477  0.15059255  0.53730040     1.37500
O228        O  0.61919575  0.12580195  0.51287967    -0.56300
O229        O  0.70029656  0.12157593  0.51503772    -0.55100
C230        C  0.65054155  0.21289080  0.53443243     0.78700
O231        O  0.69542149  0.11781418  0.56122759    -0.57400
O232        O  0.65296268  0.14479136  0.48565291    -0.55900
O233        O  0.65496210  0.15382274  0.58963365    -0.55900
O234        O  0.62987070  0.19432778  0.53435438    -0.55100
O235        O  0.36157738  0.12404873  0.50459783    -0.56300
C236        C  0.35391417  0.13507938  0.58125327     0.76400
O237        O  0.30886089  0.20372791  0.52895050    -0.57400
C238        C  0.35423746  0.13326312  0.47960582     0.76300
C239        C  0.27564582  0.10866413  0.53126920     0.78700
Cd240      Cd  0.32352546  0.15065023  0.52998882     1.37500
O241        O  0.36165600  0.12575634  0.55646474    -0.56300
O242        O  0.28216524  0.12172126  0.50789648    -0.55100
C243        C  0.33552706  0.21308860  0.52991242     0.78700
O244        O  0.28616855  0.11986126  0.55436214    -0.57400
O245        O  0.33087662  0.15075655  0.58219872    -0.55900
O246        O  0.33123934  0.14892326  0.47800340    -0.55900
O247        O  0.35539303  0.19396473  0.53085330    -0.55100
O248        O  0.51770625  0.12354635  0.40277988    -0.56300
C249        C  0.44285305  0.13240886  0.39276316     0.76400
O250        O  0.49428344  0.20141560  0.34710977    -0.57400
C251        C  0.54403999  0.12981113  0.39580901     0.76300
C252        C  0.49370400  0.10673957  0.31610843     0.78700
Cd253      Cd  0.49466107  0.14860116  0.36302956     1.37500
O254        O  0.46803371  0.12280378  0.40018615    -0.56300
O255        O  0.51768371  0.11916307  0.32383077    -0.55100
C256        C  0.49520216  0.21153735  0.37296213     0.78700
O257        O  0.47021912  0.11841280  0.32526814    -0.57400
O258        O  0.44168351  0.14816737  0.37014771    -0.55900
O259        O  0.54757881  0.14364126  0.37219365    -0.55900
O260        O  0.49651185  0.19296682  0.39302781    -0.55100
O261        O  0.06668001  0.57688203  0.39570101    -0.56300
C262        C  0.07386500  0.49784637  0.39426968     0.76400
O263        O  0.06883047  0.57052975  0.32068585    -0.57400
C264        C  0.07955498  0.60063110  0.38928719     0.76300
C265        C  0.15746074  0.54680537  0.37517870     0.78700
Cd266      Cd  0.09431616  0.54717146  0.36227063     1.37500
O267        O  0.06529820  0.52348387  0.40003323    -0.56300
O268        O  0.13791466  0.54780495  0.39453972    -0.55100
C269        C  0.05500720  0.54781535  0.31253240     0.78700
O270        O  0.14812761  0.54523099  0.34894993    -0.57400
O271        O  0.09077812  0.49506961  0.37254029    -0.55900
O272        O  0.09793377  0.59978989  0.36862334    -0.55900
O273        O  0.06466811  0.52400842  0.32260260    -0.55100
O274        O  0.06304799  0.41282784  0.56098716    -0.56300
C275        C  0.07287772  0.41077368  0.48228206     0.76400
O276        O  0.14497327  0.36179663  0.53274573    -0.57400
C277        C  0.07461805  0.40570369  0.58516078     0.76300
C278        C  0.05108485  0.32835061  0.53047056     0.78700
Cd279      Cd  0.09118443  0.37799164  0.53215002     1.37500
O280        O  0.06360726  0.41660528  0.50757672    -0.56300
O281        O  0.06440187  0.33661424  0.50776743    -0.55100
C282        C  0.15534066  0.38768539  0.53249643     0.78700
O283        O  0.06094576  0.33879982  0.55416018    -0.57400
O284        O  0.08955173  0.38875875  0.48005850    -0.55900
O285        O  0.09292450  0.38486346  0.58466316    -0.55900
O286        O  0.13647168  0.40781447  0.53209848    -0.55100
O287        O  0.07118681  0.56723667  0.65923714    -0.56300
C288        C  0.07555620  0.49083703  0.67414100     0.76400
O289        O  0.14849240  0.54372434  0.71559678    -0.57400
C290        C  0.07788327  0.59298262  0.66706528     0.76300
C291        C  0.05712180  0.54768892  0.75053295     0.78700
Cd292      Cd  0.09493803  0.54387229  0.70042660     1.37500
O293        O  0.06257970  0.51475354  0.66910084    -0.56300
O294        O  0.06973517  0.57012576  0.74036492    -0.55100
C295        C  0.15814571  0.54428867  0.68964699     0.78700
O296        O  0.06684088  0.52348211  0.74156545    -0.57400
O297        O  0.09627459  0.49144676  0.69295510    -0.55900
O298        O  0.09110146  0.59583165  0.69135453    -0.55900
O299        O  0.13889039  0.54469079  0.66966795    -0.55100
O300        O  0.07396638  0.67696146  0.50282631    -0.56300
C301        C  0.08001777  0.68113040  0.58048125     0.76400
O302        O  0.15217154  0.72913863  0.53391852    -0.57400
C303        C  0.08335563  0.68592224  0.47850854     0.76300
C304        C  0.05841696  0.76194891  0.53665447     0.78700
Cd305      Cd  0.09878350  0.71367807  0.53183322     1.37500
O306        O  0.06875808  0.67691223  0.55543345    -0.56300
O307        O  0.06866166  0.75431952  0.51224050    -0.55100
C308        C  0.16188120  0.70310569  0.53366016     0.78700
O309        O  0.07167402  0.75178694  0.55872534    -0.57400
O310        O  0.09898767  0.70150201  0.58286178    -0.55900
O311        O  0.09906049  0.70896611  0.47875660    -0.55900
O312        O  0.14271342  0.68306013  0.53255385    -0.55100
C313        C  0.65385353  0.54828045  0.27956990     0.88000
C314        C  0.63262882  0.57461587  0.28103197    -0.52200
C315        C  0.61054984  0.57454397  0.26036823     0.11000
C316        C  0.61238006  0.54841905  0.23916287     0.21900
C317        C  0.63332611  0.52136005  0.27987043    -0.52900
C318        C  0.61140691  0.52127735  0.25902953     0.11100
C319        C  0.66577225  0.54986738  0.24818570    -0.52500
C320        C  0.64433672  0.54971513  0.22700716     0.11600
H321        H  0.63503177  0.59234759  0.29653885     0.16200
H322        H  0.59463884  0.54836920  0.22225902     0.01900
H323        H  0.63558840  0.50412496  0.29580142     0.16500
H324        H  0.68909708  0.55184708  0.24303955     0.16300
C325        C  0.49242974  0.70660527  0.28122391     0.88000
C326        C  0.46543034  0.68565735  0.28110663    -0.52200
C327        C  0.46542743  0.66509039  0.25940205     0.11000
C328        C  0.49305302  0.66720510  0.23977927     0.21900
C329        C  0.51889344  0.68537874  0.28285026    -0.52900
C330        C  0.51946111  0.66472508  0.26121114     0.11100
C331        C  0.49342154  0.71944360  0.25044025    -0.52500
C332        C  0.49389024  0.69917218  0.22869307     0.11600
H333        H  0.44881335  0.68547947  0.29797051     0.16200
H334        H  0.49312331  0.65059659  0.22214536     0.01900
H335        H  0.53536713  0.68601276  0.30019298     0.16500
H336        H  0.49386513  0.74267197  0.24630677     0.16300
C337        C  0.24718177  0.70475030  0.53503668     0.88000
C338        C  0.24768175  0.68393061  0.56150939    -0.52200
C339        C  0.22651624  0.66232433  0.56075992     0.11000
C340        C  0.20584693  0.66432805  0.53383190     0.21900
C341        C  0.24825196  0.68448767  0.50825671    -0.52900
C342        C  0.22682916  0.66316764  0.50749555     0.11100
C343        C  0.21539777  0.71674194  0.53543236    -0.52500
C344        C  0.19379589  0.69589804  0.53434763     0.11600
H345        H  0.26260501  0.68639693  0.57988669     0.16200
H346        H  0.18846621  0.64709034  0.53315715     0.01900
H347        H  0.26483924  0.68673466  0.49147453     0.16500
H348        H  0.21028373  0.73976218  0.53687406     0.16300
C349        C  0.24346066  0.54365844  0.69137731     0.88000
C350        C  0.24338411  0.51717931  0.67048873    -0.52200
C351        C  0.22233787  0.51806447  0.64893896     0.11000
C352        C  0.20213479  0.54500935  0.65096999     0.21900
C353        C  0.24494145  0.57048682  0.67148181    -0.52900
C354        C  0.22372757  0.57131511  0.64999255     0.11100
C355        C  0.21173582  0.54345358  0.70337710    -0.52500
C356        C  0.19008371  0.54445157  0.68251935     0.11600
H357        H  0.25797309  0.49858066  0.67269932     0.16200
H358        H  0.18479640  0.54545950  0.63369579     0.01900
H359        H  0.26179349  0.58725764  0.67411645     0.16500
H360        H  0.20672670  0.54208534  0.72645964     0.16300
C361        C  0.65291097  0.29692044  0.53319995     0.88000
C362        C  0.63177162  0.29794687  0.50688664    -0.52200
C363        C  0.60990746  0.27714419  0.50685658     0.11000
C364        C  0.61160278  0.25652899  0.53337907     0.21900
C365        C  0.63244249  0.29783144  0.56004835    -0.52900
C366        C  0.61049274  0.27699314  0.56014480     0.11100
C367        C  0.66496984  0.26552793  0.53378191    -0.52500
C368        C  0.64359794  0.24440934  0.53348301     0.11600
H369        H  0.63383380  0.31403802  0.48990345     0.16200
H370        H  0.59392624  0.23957089  0.53335879     0.01900
H371        H  0.63524592  0.31334865  0.57780384     0.16500
H372        H  0.68822704  0.26021773  0.53553826     0.16300
C373        C  0.49472214  0.29466081  0.69439271     0.88000
C374        C  0.52169089  0.29557995  0.67388124    -0.52200
C375        C  0.52184544  0.27433125  0.65276035     0.11000
C376        C  0.49466044  0.25362901  0.65447586     0.21900
C377        C  0.46816453  0.29574186  0.67275255    -0.52900
C378        C  0.46769431  0.27417967  0.65196480     0.11100
C379        C  0.49428816  0.26364260  0.70678489    -0.52500
C380        C  0.49411987  0.24210190  0.68627304     0.11600
H381        H  0.53858117  0.31248123  0.67505438     0.16200
H382        H  0.49460017  0.23605565  0.63781481     0.01900
H383        H  0.45214185  0.31322916  0.67250291     0.16500
H384        H  0.49384264  0.25919043  0.72992745     0.16300
C385        C  0.33305648  0.54607070  0.28208260     0.88000
C386        C  0.35390015  0.51982550  0.28278185    -0.52200
C387        C  0.37504065  0.51965739  0.26172488     0.11000
C388        C  0.37294738  0.54607271  0.24101033     0.21900
C389        C  0.35386536  0.57300724  0.28246410    -0.52900
C390        C  0.37502656  0.57306762  0.26124700     0.11100
C391        C  0.31992254  0.54646727  0.25086903    -0.52500
C392        C  0.34055308  0.54601599  0.22934983     0.11600
H393        H  0.35222290  0.50261521  0.29938037     0.16200
H394        H  0.38988712  0.54608545  0.22365914     0.01900
H395        H  0.35211416  0.59068719  0.29831341     0.16500
H396        H  0.29644249  0.54801367  0.24600276     0.16300
C397        C  0.49403594  0.38800341  0.28023253     0.88000
C398        C  0.52106939  0.40861180  0.28009919    -0.52200
C399        C  0.52025487  0.42983904  0.25917323     0.11000
C400        C  0.49222827  0.42806925  0.23966622     0.21900
C401        C  0.46701110  0.40848603  0.28199449    -0.52900
C402        C  0.46617856  0.42980157  0.26115264     0.11100
C403        C  0.49170741  0.37569082  0.24898368    -0.52500
C404        C  0.49106267  0.39639515  0.22777049     0.11600
H405        H  0.53897705  0.40698325  0.29587669     0.16200
H406        H  0.49159735  0.44521937  0.22266357     0.01900
H407        H  0.44960860  0.40615818  0.29797163     0.16500
H408        H  0.48966705  0.35269028  0.24390613     0.16300
C409        C  0.49486810  0.29578144  0.37112028     0.88000
C410        C  0.46722375  0.29642376  0.39084316    -0.52200
C411        C  0.46695447  0.27572417  0.41232967     0.11000
C412        C  0.49415278  0.25549168  0.41147099     0.21900
C413        C  0.52127810  0.29724049  0.39247194    -0.52900
C414        C  0.52094838  0.27647777  0.41383649     0.11100
C415        C  0.49464348  0.26426798  0.35913701    -0.52500
C416        C  0.49481515  0.24319912  0.38000073     0.11600
H417        H  0.44942215  0.31210117  0.38834917     0.16200
H418        H  0.49384757  0.23862039  0.42875280     0.01900
H419        H  0.53847280  0.31375872  0.39104681     0.16500
H420        H  0.49340004  0.25876718  0.33624278     0.16300
C421        C  0.33621496  0.29727579  0.53091528     0.88000
C422        C  0.35674891  0.29761976  0.55788984    -0.52200
C423        C  0.37783021  0.27616398  0.55845919     0.11000
C424        C  0.37616313  0.25599291  0.53129360     0.21900
C425        C  0.35744527  0.29789329  0.50469884    -0.52900
C426        C  0.37874346  0.27676976  0.50494165     0.11100
C427        C  0.32315564  0.26614379  0.52959341    -0.52500
C428        C  0.34371690  0.24453080  0.53020350     0.11600
H429        H  0.35511029  0.31417883  0.57465617     0.16200
H430        H  0.39288760  0.23836233  0.53142031     0.01900
H431        H  0.35545286  0.31292662  0.48664185     0.16500
H432        H  0.29960189  0.26148272  0.52790544     0.16300
C433        C  0.24280700  0.54549092  0.37536793     0.88000
C434        C  0.24466510  0.57206882  0.39608585    -0.52200
C435        C  0.22346233  0.57265622  0.41725349     0.11000
C436        C  0.20140464  0.54671778  0.41497632     0.21900
C437        C  0.24258502  0.51881718  0.39558311    -0.52900
C438        C  0.22105962  0.51926122  0.41644592     0.11100
C439        C  0.21107888  0.54729880  0.36286563    -0.52500
C440        C  0.18938729  0.54721261  0.38323698     0.11600
H441        H  0.26102367  0.58928621  0.39410342     0.16200
H442        H  0.18378238  0.54704222  0.43168112     0.01900
H443        H  0.25864156  0.50147718  0.39389108     0.16500
H444        H  0.20596088  0.54894673  0.33982857     0.16300
C445        C  0.24121947  0.38702493  0.53130648     0.88000
C446        C  0.24057920  0.40721578  0.50440372    -0.52200
C447        C  0.21924915  0.42828084  0.50497461     0.11000
C448        C  0.19957909  0.42658159  0.53226079     0.21900
C449        C  0.24295526  0.40781318  0.55757604    -0.52900
C450        C  0.22142187  0.42869313  0.55821165     0.11100
C451        C  0.20939007  0.37428609  0.53180095    -0.52500
C452        C  0.18757251  0.39483450  0.53252329     0.11600
H453        H  0.25562878  0.40519939  0.48626698     0.16200
H454        H  0.18200147  0.44339810  0.53259047     0.01900
H455        H  0.26007671  0.40619382  0.57415086     0.16500
H456        H  0.20440436  0.35109007  0.53084179     0.16300
C457        C  0.49519652  0.38732238  0.78627767     0.88000
C458        C  0.46809664  0.40799564  0.78654729    -0.52200
C459        C  0.46868827  0.42875413  0.80811201     0.11000
C460        C  0.49682754  0.42717158  0.82737509     0.21900
C461        C  0.52158309  0.40890885  0.78423547    -0.52900
C462        C  0.52258766  0.42978420  0.80570190     0.11100
C463        C  0.49704905  0.37484918  0.81723076    -0.52500
C464        C  0.49789285  0.39540483  0.83875237     0.11600
H465        H  0.45095648  0.40796752  0.76990335     0.16200
H466        H  0.49742032  0.44395584  0.84484977     0.01900
H467        H  0.53763897  0.40829912  0.76680666     0.16500
H468        H  0.49743335  0.35168094  0.82164990     0.16300
C469        C  0.33594578  0.54495159  0.78427649     0.88000
C470        C  0.35659928  0.57165226  0.78289244    -0.52200
C471        C  0.37780937  0.57304819  0.80434076     0.11000
C472        C  0.37590585  0.54723886  0.82592039     0.21900
C473        C  0.35688442  0.51833319  0.78535040    -0.52900
C474        C  0.37813272  0.51951949  0.80680646     0.11100
C475        C  0.32280865  0.54555122  0.81512263    -0.52500
C476        C  0.34344141  0.54690421  0.83694610     0.11600
H477        H  0.35457261  0.58803826  0.76603934     0.16200
H478        H  0.39282501  0.54811026  0.84359174     0.01900
H479        H  0.35495528  0.49974993  0.77098292     0.16500
H480        H  0.29923945  0.54397787  0.81943801     0.16300
C481        C  0.33764956  0.79997327  0.53434321     0.88000
C482        C  0.35721542  0.79923840  0.50716148    -0.52200
C483        C  0.37839691  0.82068536  0.50603945     0.11000
C484        C  0.37761081  0.84168434  0.53241771     0.21900
C485        C  0.35965378  0.80034583  0.56029438    -0.52900
C486        C  0.38087421  0.82170827  0.55921556     0.11100
C487        C  0.32454213  0.83104349  0.53508106    -0.52500
C488        C  0.34521626  0.85295670  0.53398947     0.11600
H489        H  0.35493835  0.78254295  0.49056647     0.16200
H490        H  0.39468317  0.85921413  0.53171268     0.01900
H491        H  0.35838085  0.78559174  0.57862274     0.16500
H492        H  0.30107115  0.83539463  0.53722859     0.16300
C493        C  0.49374833  0.79933329  0.37249531     0.88000
C494        C  0.52088523  0.79839204  0.39325001    -0.52200
C495        C  0.52157333  0.81983313  0.41407898     0.11000
C496        C  0.49454513  0.84024200  0.41247064     0.21900
C497        C  0.46745480  0.79808553  0.39383652    -0.52900
C498        C  0.46763195  0.81948580  0.41469129     0.11100
C499        C  0.49355988  0.83049093  0.36017194    -0.52500
C500        C  0.49405049  0.85195833  0.38084676     0.11600
H501        H  0.53724811  0.78119314  0.39281714     0.16200
H502        H  0.49498111  0.85760519  0.42937162     0.01900
H503        H  0.45075961  0.78098099  0.39349502     0.16500
H504        H  0.49324847  0.83506752  0.33704115     0.16300
C505        C  0.74807557  0.54626100  0.37155679     0.88000
C506        C  0.74563486  0.52033642  0.39261688    -0.52200
C507        C  0.76668128  0.51988972  0.41431273     0.11000
C508        C  0.78868212  0.54573301  0.41274328     0.21900
C509        C  0.74845153  0.57358780  0.39133216    -0.52900
C510        C  0.76895900  0.57314916  0.41353384     0.11100
C511        C  0.78007582  0.54535981  0.36017477    -0.52500
C512        C  0.80132479  0.54481705  0.38147881     0.11600
H513        H  0.72848984  0.50376170  0.39044122     0.16200
H514        H  0.80569870  0.54538537  0.43029703     0.01900
H515        H  0.73390278  0.59200896  0.38791499     0.16500
H516        H  0.78573149  0.54629322  0.33730410     0.16300
C517        C  0.74551988  0.38950768  0.53241211     0.88000
C518        C  0.74406341  0.41077914  0.55845975    -0.52200
C519        C  0.76493887  0.43261306  0.55835638     0.11000
C520        C  0.78634867  0.43038403  0.53231605     0.21900
C521        C  0.74486138  0.40907017  0.50533393    -0.52900
C522        C  0.76585843  0.43075842  0.50517781     0.11100
C523        C  0.77743062  0.37789525  0.53436996    -0.52500
C524        C  0.79885345  0.39896418  0.53385844     0.11600
H525        H  0.72843265  0.40830632  0.57612223     0.16200
H526        H  0.80348985  0.44782855  0.53206797     0.01900
H527        H  0.72866945  0.40621059  0.48798514     0.16500
H528        H  0.78283139  0.35507765  0.53681440     0.16300
C529        C  0.74747625  0.54750039  0.69312229     0.88000
C530        C  0.74681627  0.57393938  0.67256357    -0.52200
C531        C  0.76791569  0.57371419  0.65128313     0.11000
C532        C  0.78841349  0.54687882  0.65300493     0.21900
C533        C  0.74613717  0.52064576  0.67266706    -0.52900
C534        C  0.76692255  0.52054869  0.65106584     0.11100
C535        C  0.77938633  0.54647325  0.70531489    -0.52500
C536        C  0.80088600  0.54627874  0.68466185     0.11600
H537        H  0.73043832  0.59098365  0.67431160     0.16200
H538        H  0.80558648  0.54689347  0.63588419     0.01900
H539        H  0.73047444  0.50286065  0.67521902     0.16500
H540        H  0.78467384  0.54478113  0.72833900     0.16300
C541        C  0.65511859  0.54824712  0.78499770     0.88000
C542        C  0.63402140  0.52152607  0.78427886    -0.52200
C543        C  0.61226686  0.52193078  0.80483455     0.11000
C544        C  0.61417394  0.54874443  0.82510683     0.21900
C545        C  0.63444294  0.57478311  0.78361884    -0.52900
C546        C  0.61280527  0.57523497  0.80436792     0.11100
C547        C  0.66743840  0.54791265  0.81644993    -0.52500
C548        C  0.64627112  0.54851084  0.83744537     0.11600
H549        H  0.63614570  0.50342687  0.76914579     0.16200
H550        H  0.59686654  0.54900148  0.84212826     0.01900
H551        H  0.63624480  0.59121964  0.76683480     0.16500
H552        H  0.69080531  0.54636748  0.82186835     0.16300
C553        C  0.49751657  0.79863535  0.69180347     0.88000
C554        C  0.47075132  0.79906141  0.67046303    -0.52200
C555        C  0.47169235  0.82080851  0.65009870     0.11000
C556        C  0.49967278  0.84010962  0.65270875     0.21900
C557        C  0.52416842  0.79662951  0.67100391    -0.52900
C558        C  0.52546325  0.81813978  0.65035094     0.11100
C559        C  0.49916612  0.82948729  0.70477477    -0.52500
C560        C  0.50001705  0.85129854  0.68470929     0.11600
H561        H  0.45350124  0.78253791  0.66995249     0.16200
H562        H  0.50029336  0.85773431  0.63620671     0.01900
H563        H  0.54002462  0.77893709  0.67173828     0.16500
H564        H  0.49894389  0.83364668  0.72795646     0.16300
C565        C  0.49487985  0.70785964  0.78442894     0.88000
C566        C  0.52121965  0.68652481  0.78304752    -0.52200
C567        C  0.52162562  0.66569884  0.80436817     0.11000
C568        C  0.49489228  0.66791369  0.82512466     0.21900
C569        C  0.46776300  0.68705491  0.78351396    -0.52900
C570        C  0.46753564  0.66607536  0.80468658     0.11100
C571        C  0.49566603  0.72033139  0.81549379    -0.52500
C572        C  0.49562689  0.69976024  0.83688685     0.11600
H573        H  0.53741752  0.68687658  0.76575354     0.16200
H574        H  0.49503317  0.65107693  0.84243756     0.01900
H575        H  0.45087413  0.68765660  0.76661677     0.16500
H576        H  0.49622430  0.74350005  0.82006963     0.16300
C577        C  0.74889660  0.70420383  0.53222758     0.88000
C578        C  0.74811425  0.68383329  0.50541922    -0.52200
C579        C  0.76850002  0.66179231  0.50584876     0.11000
C580        C  0.78910943  0.66316291  0.53292435     0.21900
C581        C  0.74709107  0.68365170  0.55861322    -0.52900
C582        C  0.76791921  0.66201862  0.55918951     0.11100
C583        C  0.78105843  0.71575247  0.53221270    -0.52500
C584        C  0.80212710  0.69457636  0.53274194     0.11600
H585        H  0.73326733  0.68713254  0.48703475     0.16200
H586        H  0.80597246  0.64568329  0.53347250     0.01900
H587        H  0.73044655  0.68599040  0.57531895     0.16500
H588        H  0.78694257  0.73865956  0.53034506     0.16300
C589        C  0.65594245  0.79612214  0.53067084     0.88000
C590        C  0.63545722  0.79477691  0.55726159    -0.52200
C591        C  0.61392956  0.81569771  0.55787778     0.11000
C592        C  0.61523637  0.83660544  0.53163604     0.21900
C593        C  0.63463781  0.79563890  0.50407464    -0.52900
C594        C  0.61305270  0.81657137  0.50461882     0.11100
C595        C  0.66836292  0.82757848  0.53033158    -0.52500
C596        C  0.64734416  0.84873144  0.53123743     0.11600
H597        H  0.63772412  0.77837285  0.57403122     0.16200
H598        H  0.59804802  0.85380731  0.53196998     0.01900
H599        H  0.63645136  0.78030821  0.48621342     0.16500
H600        H  0.69171171  0.83291229  0.52839228     0.16300
C601        C  0.72881164  0.75474345  0.54700182     0.25200
C602        C  0.72452262  0.72777190  0.53252188    -0.23000
C603        C  0.69573571  0.72190857  0.52141441     0.20100
C604        C  0.67390451  0.74362162  0.52066168     0.25100
C605        C  0.67973950  0.77201080  0.53148252    -0.22900
C606        C  0.70681150  0.77622018  0.54674919     0.20000
F607        F  0.71169650  0.80053653  0.56306000    -0.12900
F608        F  0.75364018  0.76007840  0.56306690    -0.15200
F609        F  0.64652087  0.73603341  0.51070158    -0.15200
F610        F  0.68792764  0.69466325  0.51246314    -0.12900
C611        C  0.55463984  0.79157045  0.61169806     0.25200
C612        C  0.54752552  0.81787636  0.62600947    -0.23000
C613        C  0.56146610  0.84375359  0.61667106     0.20100
C614        C  0.58264003  0.84320040  0.59431773     0.25100
C615        C  0.59056026  0.81672057  0.58090326    -0.22900
C616        C  0.57594112  0.79099226  0.58963204     0.20000
F617        F  0.58164910  0.76522636  0.57619205    -0.12900
F618        F  0.54030492  0.76636775  0.61839102    -0.15200
F619        F  0.59618720  0.86848800  0.58657218    -0.15200
F620        F  0.55540311  0.86953094  0.62987087    -0.12900
C621        C  0.52279322  0.76642649  0.73038732     0.25200
C622        C  0.49654344  0.77521443  0.71592635    -0.23000
C623        C  0.46944871  0.76528088  0.72774552     0.20100
C624        C  0.46884909  0.74429953  0.74993029     0.25100
C625        C  0.49527639  0.73206272  0.76107417    -0.22900
C626        C  0.52217258  0.74533440  0.75249518     0.20000
F627        F  0.54800983  0.73898459  0.76637638    -0.12900
F628        F  0.54921635  0.77915651  0.72415838    -0.15200
F629        F  0.44220569  0.73770839  0.76177125    -0.15200
F630        F  0.44325369  0.77717239  0.71949837    -0.12900
C631        C  0.53746007  0.61294083  0.81020086     0.25200
C632        C  0.54497484  0.64248217  0.80574975    -0.23000
C633        C  0.57501494  0.64964658  0.80126083     0.20100
C634        C  0.59686667  0.62799144  0.80105605     0.25100
C635        C  0.58943018  0.59843296  0.80545524    -0.22900
C636        C  0.55938653  0.59119775  0.80998082     0.20000
F637        F  0.55091569  0.56288244  0.81273393    -0.12900
F638        F  0.50869302  0.60481704  0.81337145    -0.15200
F639        F  0.62550046  0.63614625  0.79697747    -0.15200
F640        F  0.58343386  0.67785879  0.79751252    -0.12900
C641        C  0.74196459  0.60356565  0.61264687     0.25200
C642        C  0.76845164  0.59564809  0.62700447    -0.23000
C643        C  0.79513439  0.60870876  0.61783165     0.20100
C644        C  0.79512264  0.63002517  0.59573116     0.25100
C645        C  0.76844089  0.63865199  0.58213455    -0.22900
C646        C  0.74195590  0.62472880  0.59061400     0.20000
F647        F  0.71596985  0.63100036  0.57695290    -0.12900
F648        F  0.71600422  0.59012298  0.61931913    -0.15200
F649        F  0.82113131  0.64296605  0.58840002    -0.15200
F650        F  0.82117476  0.60156427  0.63090980    -0.12900
C651        C  0.69413669  0.53785263  0.71092618     0.25200
C652        C  0.72298508  0.54890219  0.71639629    -0.23000
C653        C  0.72737913  0.56445752  0.74272892     0.20100
C654        C  0.70583410  0.56430004  0.76460447     0.25100
C655        C  0.67871073  0.54903165  0.76082769    -0.22900
C656        C  0.67242363  0.53809522  0.73261810     0.20000
F657        F  0.64469190  0.52899958  0.72519483    -0.12900
F658        F  0.68603468  0.52825226  0.68402859    -0.15200
F659        F  0.71119785  0.58056267  0.78884248    -0.15200
F660        F  0.75193578  0.58124647  0.74696626    -0.12900
C661        C  0.73938820  0.46812204  0.59178775     0.25200
C662        C  0.76590339  0.45613663  0.58116632    -0.23000
C663        C  0.79295602  0.46633522  0.59303984     0.20100
C664        C  0.79342094  0.48728911  0.61551755     0.25100
C665        C  0.76682875  0.49838376  0.62689343    -0.22900
C666        C  0.73981515  0.48863846  0.61445547     0.20000
F667        F  0.71358158  0.49958274  0.62359272    -0.12900
F668        F  0.71283976  0.46060120  0.57968147    -0.15200
F669        F  0.81997098  0.49580089  0.62685838    -0.15200
F670        F  0.81903880  0.45524095  0.58375848    -0.12900
C671        C  0.79359280  0.48475435  0.44787847     0.25200
C672        C  0.76693335  0.49742292  0.43801595    -0.23000
C673        C  0.74024414  0.48854354  0.45109184     0.20100
C674        C  0.74004093  0.46701478  0.47267247     0.25100
C675        C  0.76657041  0.45393698  0.48222049    -0.22900
C676        C  0.79342120  0.46337193  0.46984403     0.20000
F677        F  0.81945824  0.45119697  0.47825242    -0.12900
F678        F  0.81978699  0.49227594  0.43559123    -0.15200
F679        F  0.71376635  0.45961953  0.48489656    -0.15200
F680        F  0.71423390  0.50138812  0.44367072    -0.12900
C681        C  0.79638664  0.60590047  0.45002182     0.25200
C682        C  0.76961131  0.59570162  0.43740307    -0.23000
C683        C  0.74280643  0.60679532  0.44825955     0.20100
C684        C  0.74266198  0.62780621  0.47038596     0.25100
C685        C  0.76932974  0.63858887  0.48264511    -0.22900
C686        C  0.79624225  0.62705672  0.47239682     0.20000
F687        F  0.82254482  0.63691360  0.48322498    -0.12900
F688        F  0.82282153  0.59620960  0.44012551    -0.15200
F689        F  0.71603702  0.63684302  0.48044243    -0.15200
F690        F  0.71632214  0.59655573  0.43821825    -0.12900
C691        C  0.53778253  0.82492608  0.46676164     0.25200
C692        C  0.54512402  0.82128638  0.43722248    -0.23000
C693        C  0.57512178  0.81750755  0.43000063     0.20100
C694        C  0.59712438  0.81664404  0.45172607     0.25100
C695        C  0.58974325  0.81931546  0.48135119    -0.22900
C696        C  0.55980844  0.82379870  0.48857501     0.20000
F697        F  0.55154065  0.82560038  0.51686675    -0.12900
F698        F  0.50909198  0.82808028  0.47476549    -0.15200
F699        F  0.62580404  0.81359026  0.44364751    -0.15200
F700        F  0.58326752  0.81496146  0.40172659    -0.12900
C701        C  0.40960323  0.84685018  0.46839348     0.25200
C702        C  0.40186140  0.82104130  0.48314487    -0.23000
C703        C  0.41674289  0.79511188  0.47590356     0.20100
C704        C  0.43821407  0.79478901  0.45406320     0.25100
C705        C  0.44548982  0.82039242  0.43877078    -0.22900
C706        C  0.43130187  0.84654483  0.44650625     0.20000
F707        F  0.43767998  0.87162416  0.43216604    -0.12900
F708        F  0.39537668  0.87214262  0.47435384    -0.15200
F709        F  0.45249487  0.76943283  0.44841484    -0.15200
F710        F  0.41100721  0.77002178  0.49050965    -0.12900
C711        C  0.43459036  0.82636587  0.57509462     0.25200
C712        C  0.40433827  0.82467324  0.58227240    -0.23000
C713        C  0.39657713  0.82341872  0.61186313     0.20100
C714        C  0.41841436  0.82283289  0.63370998     0.25100
C715        C  0.44866787  0.82372252  0.62664376    -0.22900
C716        C  0.45655563  0.82598024  0.59708255     0.20000
F717        F  0.48551633  0.82616113  0.58932445    -0.12900
F718        F  0.44297593  0.82668465  0.54677639    -0.15200
F719        F  0.40990959  0.82145884  0.66194845    -0.15200
F720        F  0.36764475  0.82269920  0.61970227    -0.12900
C721        C  0.43134971  0.63299481  0.83123747     0.25200
C722        C  0.44488317  0.64189985  0.80515721    -0.23000
C723        C  0.43659532  0.62751156  0.77913945     0.20100
C724        C  0.41526938  0.60515036  0.77909170     0.25100
C725        C  0.40131752  0.59645379  0.80503716    -0.22900
C726        C  0.40975582  0.61057731  0.83117269     0.20000
F727        F  0.39627092  0.60352862  0.85651455    -0.12900
F728        F  0.43816871  0.64674903  0.85666048    -0.15200
F729        F  0.40884629  0.59146793  0.75352138    -0.15200
F730        F  0.44974047  0.63452722  0.75359872    -0.12900
C731        C  0.41509253  0.44463073  0.80818895     0.25200
C732        C  0.44538941  0.45192704  0.81066280    -0.23000
C733        C  0.45316630  0.48159099  0.81421399     0.20100
C734        C  0.43129578  0.50339649  0.81421176     0.25100
C735        C  0.40111024  0.49614883  0.81041857    -0.22900
C736        C  0.39329324  0.46638044  0.80804806     0.20000
F737        F  0.36439453  0.45820153  0.80572102    -0.12900
F738        F  0.40648300  0.41626796  0.80602550    -0.15200
F739        F  0.43989555  0.53176160  0.81623887    -0.15200
F740        F  0.48208209  0.48976999  0.81599436    -0.12900
C741        C  0.55079762  0.46989117  0.78056088     0.25200
C742        C  0.54480346  0.45419367  0.80616532    -0.23000
C743        C  0.55997098  0.46218052  0.83198187     0.20100
C744        C  0.58155918  0.48451641  0.83182527     0.25100
C745        C  0.58831608  0.49930171  0.80588264    -0.22900
C746        C  0.57227009  0.49210226  0.78042514     0.20000
F747        F  0.57698000  0.50707336  0.75540849    -0.12900
F748        F  0.53527515  0.46423565  0.75570079    -0.15200
F749        F  0.59664907  0.49090201  0.85676418    -0.15200
F750        F  0.55468726  0.44768224  0.85714870    -0.12900
C751        C  0.22039796  0.46615669  0.43104205     0.25200
C752        C  0.21803246  0.49578922  0.43887244    -0.23000
C753        C  0.21409862  0.50284020  0.46845432     0.20100
C754        C  0.21356368  0.48089953  0.48975759     0.25100
C755        C  0.21684039  0.45133946  0.48201300    -0.22900
C756        C  0.21978451  0.44424538  0.45229392     0.20000
F757        F  0.22192426  0.41598304  0.44368428    -0.12900
F758        F  0.22309245  0.45828892  0.40266863    -0.15200
F759        F  0.21160319  0.48883720  0.51816221    -0.15200
F760        F  0.21246904  0.53112622  0.47707059    -0.12900
C761        C  0.28676136  0.31789448  0.54896044     0.25200
C762        C  0.31253765  0.32150426  0.53200776    -0.23000
C763        C  0.31683282  0.34913108  0.51903619     0.20100
C764        C  0.29440716  0.37022738  0.51925531     0.25100
C765        C  0.26651084  0.36443294  0.53195851    -0.22900
C766        C  0.26422866  0.33888042  0.54890825     0.20000
F767        F  0.24073502  0.33458944  0.56666558    -0.12900
F768        F  0.28356918  0.29435736  0.56653664    -0.15200
F769        F  0.30115115  0.39704843  0.50870968    -0.15200
F770        F  0.34343436  0.35697691  0.50787956    -0.12900
C771        C  0.40900743  0.24945902  0.46719899     0.25200
C772        C  0.40230342  0.27550465  0.48208340    -0.23000
C773        C  0.41742811  0.30121393  0.47412181     0.20100
C774        C  0.43792130  0.30119517  0.45136255     0.25100
C775        C  0.44444549  0.27532614  0.43618444    -0.22900
C776        C  0.42998072  0.24935472  0.44455696     0.20000
F777        F  0.43531721  0.22408695  0.43008721    -0.12900
F778        F  0.39444877  0.22435826  0.47375549    -0.15200
F779        F  0.45197775  0.32653492  0.44462834    -0.15200
F780        F  0.41276290  0.32647613  0.48885287    -0.12900
C781        C  0.48665969  0.37062154  0.33314912     0.25200
C782        C  0.49613298  0.36478926  0.30446233    -0.23000
C783        C  0.51078125  0.33803674  0.29981937     0.20100
C784        C  0.51075944  0.31610507  0.32105513     0.25100
C785        C  0.49640008  0.32017314  0.34802147    -0.22900
C786        C  0.48697419  0.34878067  0.35454271     0.20000
F787        F  0.47915913  0.35617433  0.38204874    -0.12900
F788        F  0.47832224  0.39785573  0.34115753    -0.15200
F789        F  0.52661166  0.29168318  0.31557286    -0.15200
F790        F  0.52670383  0.33341170  0.27531968    -0.12900
C791        C  0.28317722  0.52938877  0.30332327     0.25200
C792        C  0.31028431  0.54464118  0.30686698    -0.23000
C793        C  0.31750632  0.55434653  0.33534691     0.20100
C794        C  0.29630614  0.55394414  0.35756699     0.25100
C795        C  0.26717445  0.54370803  0.35212415    -0.22900
C796        C  0.26210852  0.52886016  0.32551565     0.20000
F797        F  0.23733678  0.51239758  0.32122554    -0.12900
F798        F  0.27744495  0.51334309  0.27902797    -0.15200
F799        F  0.30499574  0.56214576  0.38476393    -0.15200
F800        F  0.34553523  0.56291173  0.34231687    -0.12900
C801        C  0.40699982  0.48337307  0.23475639     0.25200
C802        C  0.39899536  0.49723265  0.26091073    -0.23000
C803        C  0.41375494  0.48920025  0.28680283     0.20100
C804        C  0.43542107  0.46747833  0.28671056     0.25100
C805        C  0.44312754  0.45317006  0.26071050    -0.22900
C806        C  0.42881492  0.46151482  0.23465718     0.20000
F807        F  0.43507570  0.44774309  0.20926480    -0.12900
F808        F  0.39293180  0.49017789  0.20945436    -0.15200
F809        F  0.44944416  0.46096394  0.31212607    -0.15200
F810        F  0.40773794  0.50293661  0.31229196    -0.12900
C811        C  0.46803845  0.35089524  0.75171735     0.25200
C812        C  0.49481496  0.36282135  0.76291180    -0.23000
C813        C  0.52125148  0.34850767  0.75492783     0.20100
C814        C  0.52123542  0.32659420  0.73334960     0.25100
C815        C  0.49476622  0.31809148  0.71880522    -0.22900
C816        C  0.46803893  0.32894227  0.73031751     0.20000
F817        F  0.44154765  0.31697843  0.72254321    -0.12900
F818        F  0.44148526  0.35862921  0.76284744    -0.15200
F819        F  0.54712197  0.31280346  0.72778800    -0.15200
F820        F  0.54720300  0.35482972  0.76881832    -0.12900
C821        C  0.45192256  0.26635200  0.59913364     0.25200
C822        C  0.44437439  0.27259944  0.62822506    -0.23000
C823        C  0.41440553  0.27854625  0.63428622     0.20100
C824        C  0.39291769  0.27917599  0.61192165     0.25100
C825        C  0.40056838  0.27365968  0.58266972    -0.22900
C826        C  0.43036363  0.26679694  0.57673885     0.20000
F827        F  0.43916209  0.26197906  0.54897777    -0.12900
F828        F  0.48052563  0.26127690  0.59191736    -0.15200
F829        F  0.36440068  0.28478460  0.61914123    -0.15200
F830        F  0.40565301  0.28337077  0.66208833    -0.12900
C831        C  0.69200056  0.37182533  0.54088154     0.25200
C832        C  0.72106814  0.36591547  0.53137173    -0.23000
C833        C  0.72562319  0.33888718  0.51727995     0.20100
C834        C  0.70376948  0.31704306  0.51736690     0.25100
C835        C  0.67657211  0.32123247  0.53181671    -0.22900
C836        C  0.67019540  0.34988246  0.54113857     0.20000
F837        F  0.64236814  0.35727285  0.54921624    -0.12900
F838        F  0.68396560  0.39923115  0.54861980    -0.15200
F839        F  0.70881201  0.29256784  0.50152354    -0.15200
F840        F  0.75057373  0.33388759  0.50180091    -0.12900
C841        C  0.57211284  0.30234188  0.47527242     0.25200
C842        C  0.58600281  0.27633002  0.48404919    -0.23000
C843        C  0.57742666  0.25004317  0.47033812     0.20100
C844        C  0.55614667  0.24996025  0.44772409     0.25100
C845        C  0.54301576  0.27615109  0.43836834    -0.22900
C846        C  0.55097842  0.30226797  0.45275614     0.20000
F847        F  0.53777242  0.32780403  0.44550374    -0.12900
F848        F  0.57856175  0.32794610  0.48894746    -0.15200
F849        F  0.54928736  0.22440143  0.43419811    -0.15200
F850        F  0.59050824  0.22457536  0.47796284    -0.12900
C851        C  0.57281643  0.30120616  0.59225021     0.25200
C852        C  0.58721186  0.27558289  0.58331556    -0.23000
C853        C  0.57918592  0.24906451  0.59670956     0.20100
C854        C  0.55778841  0.24840844  0.61897877     0.25100
C855        C  0.54399480  0.27427015  0.62839764    -0.22900
C856        C  0.55151764  0.30055721  0.61430349     0.20000
F857        F  0.53759118  0.32575546  0.62128955    -0.12900
F858        F  0.57882496  0.32700854  0.57904573    -0.15200
F859        F  0.55135164  0.22262048  0.63199119    -0.15200
F860        F  0.59285300  0.22392179  0.58904881    -0.12900
C861        C  0.26535985  0.56239815  0.73962866     0.25200
C862        C  0.26808450  0.54437748  0.71480789    -0.23000
C863        C  0.29570270  0.53061827  0.71070870     0.20100
C864        C  0.31749340  0.53091918  0.73261801     0.25100
C865        C  0.31266844  0.54510109  0.75951679    -0.22900
C866        C  0.28725080  0.56283659  0.76148504     0.20000
F867        F  0.28393649  0.58163692  0.78410116    -0.12900
F868        F  0.24194991  0.58063009  0.74238794    -0.15200
F869        F  0.34416910  0.51922971  0.72612343    -0.15200
F870        F  0.30307623  0.51881357  0.68467403    -0.12900
C871        C  0.19454499  0.48213795  0.61642365     0.25200
C872        C  0.22122162  0.49593677  0.62494903    -0.23000
C873        C  0.24752294  0.48812875  0.61070792     0.20100
C874        C  0.24736531  0.46669558  0.58896292     0.25100
C875        C  0.22090526  0.45227501  0.58083213    -0.22900
C876        C  0.19438298  0.46048115  0.59456717     0.20000
F877        F  0.16850335  0.44673919  0.58771031    -0.12900
F878        F  0.16886340  0.48870949  0.63007204    -0.15200
F879        F  0.27318974  0.46051685  0.57537233    -0.15200
F880        F  0.27352609  0.50170846  0.61749491    -0.12900
C881        C  0.26745469  0.75400245  0.51712346     0.25200
C882        C  0.27139354  0.72870803  0.53426206    -0.23000
C883        C  0.29946265  0.72506393  0.54757512     0.20100
C884        C  0.32080921  0.74744537  0.54721882     0.25100
C885        C  0.31473945  0.77477415  0.53421415    -0.22900
C886        C  0.28849048  0.77669076  0.51738577     0.20000
F887        F  0.28351161  0.80010547  0.50004785    -0.12900
F888        F  0.24362688  0.75653892  0.49908144    -0.15200
F889        F  0.34817456  0.74107765  0.55775646    -0.15200
F890        F  0.30755333  0.69909191  0.55914062    -0.12900
C891        C  0.25137037  0.62500947  0.47640514     0.25200
C892        C  0.22549331  0.63989927  0.48444609    -0.23000
C893        C  0.19854098  0.63202324  0.47067013     0.20100
C894        C  0.19758879  0.60989402  0.44925030     0.25100
C895        C  0.22362428  0.59533671  0.44095976    -0.22900
C896        C  0.25043126  0.60301418  0.45511923     0.20000
F897        F  0.27582217  0.58862264  0.44890134    -0.12900
F898        F  0.27765257  0.63121791  0.48973154    -0.15200
F899        F  0.17138238  0.60347036  0.43590841    -0.15200
F900        F  0.17328783  0.64653469  0.47710929    -0.12900
C901        C  0.25072744  0.60342929  0.61432378     0.25200
C902        C  0.22375912  0.59420803  0.62665021    -0.23000
C903        C  0.19732113  0.60706813  0.61649221     0.20100
C904        C  0.19798113  0.62889924  0.59490996     0.25100
C905        C  0.22512378  0.63860206  0.58324468    -0.22900
C906        C  0.25141638  0.62536760  0.59319322     0.20000
F907        F  0.27801279  0.63305596  0.58183632    -0.12900
F908        F  0.27663969  0.59057754  0.62207816    -0.15200
F909        F  0.17212558  0.64126445  0.58626075    -0.15200
F910        F  0.17089457  0.59932179  0.62816729    -0.12900
C911        C  0.46633866  0.76553768  0.33599002     0.25200
C912        C  0.49328616  0.77582968  0.34829210    -0.23000
C913        C  0.51970686  0.76633669  0.33503271     0.20100
C914        C  0.51927277  0.74447936  0.31356041     0.25100
C915        C  0.49249049  0.73079883  0.30471898    -0.22900
C916        C  0.46591115  0.74330444  0.31489160     0.20000
F917        F  0.43925959  0.73558500  0.30323232    -0.12900
F918        F  0.44016942  0.77808791  0.34293749    -0.15200
F919        F  0.54521961  0.73782341  0.30045573    -0.15200
F920        F  0.54612798  0.77916603  0.34158114    -0.12900
C921        C  0.44990639  0.61202462  0.25385728     0.25200
C922        C  0.44214913  0.64156402  0.25737142    -0.23000
C923        C  0.41197034  0.64837737  0.26086679     0.20100
C924        C  0.39025609  0.62631614  0.26152686     0.25100
C925        C  0.39804052  0.59672236  0.25869332    -0.22900
C926        C  0.42812897  0.58989321  0.25454954     0.20000
F927        F  0.43676826  0.56164013  0.25275804    -0.12900
F928        F  0.47876429  0.60431674  0.25136658    -0.15200
F929        F  0.36146145  0.63402821  0.26467574    -0.15200
F930        F  0.40337393  0.67658453  0.26349221    -0.12900
C931        C  0.67273702  0.55787122  0.33218437     0.25200
C932        C  0.67789120  0.54698718  0.30381694    -0.23000
C933        C  0.70441981  0.53125937  0.29976150     0.20100
C934        C  0.72661409  0.53059035  0.32141750     0.25100
C935        C  0.72332245  0.54577826  0.34802846    -0.22900
C936        C  0.69495956  0.55727178  0.35378113     0.20000
F937        F  0.68788769  0.56665754  0.38088467    -0.12900
F938        F  0.64559462  0.56758428  0.33997133    -0.15200
F939        F  0.75052666  0.51346459  0.31672965    -0.15200
F940        F  0.70853550  0.51511607  0.27533292    -0.12900
C941        C  0.57257819  0.49081887  0.28399844     0.25200
C942        C  0.58726094  0.49856798  0.25819132    -0.23000
C943        C  0.57870225  0.48444397  0.23208607     0.20100
C944        C  0.55662352  0.46244361  0.23206959     0.25100
C945        C  0.54272057  0.45412742  0.25817785    -0.22900
C946        C  0.55061444  0.46906141  0.28396160     0.20000
F947        F  0.53648383  0.46303449  0.30923775    -0.12900
F948        F  0.57904694  0.50482377  0.30937987    -0.15200
F949        F  0.54963232  0.44858765  0.20673707    -0.15200
F950        F  0.59249799  0.49112456  0.20679720    -0.12900
C951        C  0.57212598  0.60468387  0.28591059     0.25200
C952        C  0.58646151  0.59693216  0.25991728    -0.23000
C953        C  0.57771754  0.61083376  0.23394109     0.20100
C954        C  0.55575168  0.63256667  0.23415660     0.25100
C955        C  0.54207413  0.64087028  0.26037214    -0.22900
C956        C  0.55025234  0.62624500  0.28612944     0.20000
F957        F  0.53647164  0.63224078  0.31159575    -0.12900
F958        F  0.57878847  0.59082778  0.31119795    -0.15200
F959        F  0.54869742  0.64621886  0.20887337    -0.15200
F960        F  0.59124157  0.60423116  0.20850154    -0.12900
C961        C  0.08661941  0.66683953  0.63251280     0.25200
C962        C  0.07315068  0.66189247  0.60517838    -0.23000
C963        C  0.05650859  0.63619820  0.60064982     0.20100
C964        C  0.05626849  0.61444020  0.62175890     0.25100
C965        C  0.07238478  0.61812951  0.64789117    -0.22900
C966        C  0.08629215  0.64512891  0.65366961     0.20000
F967        F  0.10155518  0.64987038  0.67887475    -0.12900
F968        F  0.10176449  0.69193849  0.63824276    -0.15200
F969        F  0.04170886  0.58908418  0.61575322    -0.15200
F970        F  0.04214034  0.63109122  0.57501532    -0.12900
C971        C  0.04709602  0.44422294  0.61251214     0.25200
C972        C  0.06882534  0.42232548  0.61211442    -0.23000
C973        C  0.08777367  0.41927982  0.63640536     0.20100
C974        C  0.08784319  0.44013771  0.65856525     0.25100
C975        C  0.06887608  0.46433005  0.65686532    -0.22900
C976        C  0.04695622  0.46492265  0.63487949     0.20000
F977        F  0.02679644  0.48676291  0.63370786    -0.12900
F978        F  0.02725668  0.44689505  0.59029572    -0.15200
F979        F  0.10834266  0.43788688  0.68025149    -0.15200
F980        F  0.10818042  0.39766868  0.63758608    -0.12900
C981        C  0.07879788  0.44524323  0.40801120     0.25200
C982        C  0.06653386  0.47288682  0.41334599    -0.23000
C983        C  0.05077013  0.47735943  0.43929160     0.20100
C984        C  0.05075458  0.45608738  0.46099768     0.25100
C985        C  0.06635766  0.42986950  0.45709922    -0.22900
C986        C  0.07876014  0.42395579  0.42969752     0.20000
F987        F  0.09252612  0.39826299  0.42435530    -0.12900
F988        F  0.09253290  0.43930363  0.38250444    -0.15200
F989        F  0.03708244  0.46210161  0.48652207    -0.15200
F990        F  0.03696230  0.50304315  0.44460344    -0.12900
C991        C  0.05351221  0.62741661  0.42861900     0.25200
C992        C  0.07528258  0.62716672  0.40691818    -0.23000
C993        C  0.09603325  0.65021942  0.40581109     0.20100
C994        C  0.09710502  0.67111675  0.42799658     0.25100
C995        C  0.07762264  0.66907887  0.45165998    -0.22900
C996        C  0.05491206  0.64794302  0.45100400     0.20000
F997        F  0.03503402  0.64599867  0.47294532    -0.12900
F998        F  0.03200089  0.60658590  0.42936741    -0.15200
F999        F  0.11896024  0.69161359  0.42760266    -0.15200
F1000       F  0.11696987  0.65120542  0.38476434    -0.12900
C1001       C  0.37049924  0.14624483  0.42965319     0.25200
C1002       C  0.37293207  0.12795592  0.45407566    -0.23000
C1003       C  0.39611244  0.10760725  0.45548192     0.20100
C1004       C  0.41791682  0.10741481  0.43416502     0.25100
C1005       C  0.41671535  0.12741171  0.41099853    -0.22900
C1006       C  0.39206905  0.14581358  0.40820766     0.20000
F1007       F  0.39009669  0.16540810  0.38617511    -0.12900
F1008       F  0.34881057  0.16656023  0.42771712    -0.15200
F1009       F  0.44107253  0.08884061  0.43721264    -0.15200
F1010       F  0.39872854  0.08905216  0.47834564    -0.12900
C1011       C  0.58459344  0.10751308  0.46372743     0.25200
C1012       C  0.61045697  0.12459037  0.46146149    -0.23000
C1013       C  0.61688980  0.13829900  0.43486580     0.20100
C1014       C  0.59624791  0.13776459  0.41216681     0.25100
C1015       C  0.56889461  0.12343428  0.41567157    -0.22900
C1016       C  0.56401882  0.10683088  0.44094174     0.20000
F1017       F  0.53847189  0.09146377  0.44449635    -0.12900
F1018       F  0.57827584  0.09286343  0.48859501    -0.15200
F1019       F  0.60207983  0.15349428  0.38785996    -0.15200
F1020       F  0.64197636  0.15442131  0.43155158    -0.12900
C1021       C  0.38937635  0.14547121  0.65503722     0.25200
C1022       C  0.41501066  0.12840539  0.65203914    -0.23000
C1023       C  0.41741941  0.10967722  0.62786922     0.20100
C1024       C  0.39605900  0.11006369  0.60582873     0.25100
C1025       C  0.37211321  0.12947582  0.60734722    -0.22900
C1026       C  0.36821765  0.14619120  0.63275020     0.20000
F1027       F  0.34525774  0.16503959  0.63515660    -0.12900
F1028       F  0.38579401  0.16328996  0.67839983    -0.15200
F1029       F  0.39986277  0.09261992  0.58221484    -0.15200
F1030       F  0.44132290  0.09215921  0.62460083    -0.12900
C1031       C  0.57484740  0.10754446  0.64052817     0.25200
C1032       C  0.57270586  0.13050756  0.66068413    -0.23000
C1033       C  0.59418474  0.15290174  0.66076230     0.20100
C1034       C  0.61542340  0.15398820  0.63894030     0.25100
C1035       C  0.61534293  0.13272058  0.61683837    -0.22900
C1036       C  0.59597688  0.10869244  0.61866880     0.20000
F1037       F  0.59633257  0.08715632  0.59830151    -0.12900
F1038       F  0.55532812  0.08488226  0.64087888    -0.15200
F1039       F  0.63396935  0.17740937  0.63783385    -0.15200
F1040       F  0.59279910  0.17539467  0.68001170    -0.12900
C1041       C  0.57258329  0.65278279  0.08710068     0.25200
C1042       C  0.57461940  0.67567445  0.10750422    -0.23000
C1043       C  0.60102399  0.67926284  0.12370330     0.20100
C1044       C  0.62266029  0.65760156  0.12314457     0.25100
C1045       C  0.61800106  0.63212568  0.10648652    -0.22900
C1046       C  0.59415156  0.63115521  0.08657964     0.20000
F1047       F  0.59043240  0.60817965  0.06814356    -0.12900
F1048       F  0.54861421  0.65004552  0.06918641    -0.15200
F1049       F  0.64663577  0.66036058  0.14103805    -0.15200
F1050       F  0.60474377  0.70218481  0.14220039    -0.12900
C1051       C  0.39242412  0.62695995  0.09481703     0.25200
C1052       C  0.37290028  0.62470232  0.11838686    -0.23000
C1053       C  0.37396109  0.64575180  0.14066590     0.20100
C1054       C  0.39554954  0.66752018  0.14046331     0.25100
C1055       C  0.41658759  0.66843965  0.11808674    -0.22900
C1056       C  0.41416484  0.64874737  0.09465978     0.20000
F1057       F  0.43348662  0.64992074  0.07218518    -0.12900
F1058       F  0.39115271  0.60747605  0.07250097    -0.15200
F1059       F  0.39744162  0.68598249  0.16360474    -0.15200
F1060       F  0.35593072  0.64372615  0.16411090    -0.12900
C1061       C  0.39051347  0.47133449  0.08947830     0.25200
C1062       C  0.36611501  0.46956566  0.10824426    -0.23000
C1063       C  0.36096796  0.44346022  0.12349096     0.20100
C1064       C  0.38230427  0.42153957  0.12363697     0.25100
C1065       C  0.40891845  0.42539344  0.10835356    -0.22900
C1066       C  0.41172586  0.44937867  0.08948072     0.20000
F1067       F  0.43603616  0.45275064  0.07255992    -0.12900
F1068       F  0.39502585  0.49521211  0.07261473    -0.15200
F1069       F  0.37792072  0.39781383  0.14071765    -0.15200
F1070       F  0.33659679  0.44008872  0.14030924    -0.12900
C1071       C  0.55904518  0.45781409  0.09568292     0.25200
C1072       C  0.56334260  0.43228991  0.11210152    -0.23000
C1073       C  0.59097107  0.42776550  0.12576045     0.20100
C1074       C  0.61271303  0.44957184  0.12538575     0.25100
C1075       C  0.60724426  0.47628369  0.11130223    -0.22900
C1076       C  0.58082594  0.47949570  0.09515221     0.20000
F1077       F  0.57519212  0.50430842  0.08007734    -0.12900
F1078       F  0.53307021  0.46270408  0.08140758    -0.15200
F1079       F  0.63838588  0.44506393  0.14029930    -0.15200
F1080       F  0.59642801  0.40302752  0.14103456    -0.12900
C1081       C  0.97933342  0.57611352  0.29813327     0.25200
C1082       C  0.96338716  0.54957763  0.29888352    -0.23000
C1083       C  0.97863051  0.52366909  0.29237881     0.20100
C1084       C  0.00969744  0.52364236  0.29134560     0.25100
C1085       C  0.02586043  0.54944278  0.29715494    -0.22900
C1086       C  0.01034773  0.57604589  0.29735976     0.20000
F1087       F  0.02495642  0.60176030  0.30135787    -0.12900
F1088       F  0.96542812  0.60192892  0.30252156    -0.15200
F1089       F  0.02388061  0.49778107  0.28848778    -0.15200
F1090       F  0.96390525  0.49778339  0.29085097    -0.12900
C1091       C  0.97611823  0.30630993  0.55565208     0.25200
C1092       C  0.95994273  0.31241270  0.53002615    -0.23000
C1093       C  0.97504218  0.31137090  0.50330899     0.20100
C1094       C  0.00612667  0.31106090  0.50292229     0.25100
C1095       C  0.02240683  0.31201239  0.52924658    -0.22900
C1096       C  0.00719010  0.30615050  0.55527157     0.20000
F1097       F  0.02218649  0.30417319  0.58094069    -0.12900
F1098       F  0.96218585  0.30448294  0.58167371    -0.15200
F1099       F  0.01999824  0.31419349  0.47700195    -0.15200
F1100       F  0.96017410  0.31506844  0.47777090    -0.12900
C1101       C  0.93783042  0.45443652  0.46300038     0.25200
C1102       C  0.92085028  0.42881805  0.45920196    -0.23000
C1103       C  0.90786695  0.42302182  0.43179305     0.20100
C1104       C  0.90877784  0.44399993  0.40987015     0.25100
C1105       C  0.92290810  0.47103524  0.41490629    -0.22900
C1106       C  0.93912800  0.47519033  0.44092480     0.20000
F1107       F  0.95445597  0.50030349  0.44604668    -0.12900
F1108       F  0.95133745  0.46063375  0.48884649    -0.15200
F1109       F  0.89390745  0.43857233  0.38457736    -0.15200
F1110       F  0.89250017  0.39792114  0.42673087    -0.12900
C1111       C  0.98301744  0.77602104  0.56578704     0.25200
C1112       C  0.96694529  0.77680381  0.53934476    -0.23000
C1113       C  0.98234631  0.78436682  0.51386219     0.20100
C1114       C  0.01344010  0.78446094  0.51372615     0.25100
C1115       C  0.02948940  0.77724813  0.53912124    -0.22900
C1116       C  0.01408259  0.77631601  0.56568805     0.20000
F1117       F  0.02873668  0.77154247  0.59116343    -0.12900
F1118       F  0.96900806  0.77082718  0.59131492    -0.15200
F1119       F  0.02757944  0.78794633  0.48799044    -0.15200
F1120       F  0.96755393  0.78799721  0.48827760    -0.12900
C1121       C  0.90425480  0.67277782  0.42701125     0.25200
C1122       C  0.92292426  0.67021270  0.45153869    -0.23000
C1123       C  0.94420356  0.64793817  0.45213542     0.20100
C1124       C  0.94312111  0.62564528  0.43144263     0.25100
C1125       C  0.92113900  0.62573583  0.40952438    -0.22900
C1126       C  0.90337424  0.65065321  0.40609948     0.20000
F1127       F  0.88326232  0.65253977  0.38402931    -0.12900
F1128       F  0.88484587  0.69517072  0.42455949    -0.15200
F1129       F  0.96218933  0.60300602  0.43420949    -0.15200
F1130       F  0.96458976  0.64644875  0.47400174    -0.12900
C1131       C  0.98240269  0.52372239  0.77432510     0.25200
C1132       C  0.96670436  0.54953380  0.76834257    -0.23000
C1133       C  0.98261669  0.57612808  0.76892656     0.20100
C1134       C  0.01369759  0.57613377  0.76838528     0.25100
C1135       C  0.02916650  0.54954288  0.76742229    -0.22900
C1136       C  0.01347836  0.52375778  0.77396717     0.20000
F1137       F  0.02786220  0.49791198  0.77603872    -0.12900
F1138       F  0.96791392  0.49780118  0.77655558    -0.15200
F1139       F  0.02819082  0.60189027  0.76465137    -0.15200
F1140       F  0.96829585  0.60193091  0.76604816    -0.12900
C1141       C  0.94289281  0.46678521  0.63528139     0.25200
C1142       C  0.92325578  0.46429682  0.65882075    -0.23000
C1143       C  0.90664762  0.43844202  0.66192362     0.20100
C1144       C  0.90609543  0.41772361  0.63959405     0.25100
C1145       C  0.92208993  0.42265734  0.61388794    -0.22900
C1146       C  0.94230922  0.44610429  0.61296322     0.20000
F1147       F  0.95995736  0.45028865  0.58952279    -0.12900
F1148       F  0.96096001  0.49040969  0.63258160    -0.15200
F1149       F  0.88780866  0.39425265  0.64214075    -0.15200
F1150       F  0.88879134  0.43434381  0.68520809    -0.12900
C1151       C  0.90461673  0.64202038  0.65405595     0.25200
C1152       C  0.91977773  0.61563964  0.65000181    -0.23000
C1153       C  0.93694696  0.61188733  0.62483949     0.20100
C1154       C  0.93665286  0.63294419  0.60295036     0.25100
C1155       C  0.91913151  0.65808107  0.60583763    -0.22900
C1156       C  0.90413286  0.66292343  0.63214914     0.20000
F1157       F  0.88742607  0.68710548  0.63619487    -0.12900
F1158       F  0.88851995  0.64694270  0.67840820    -0.15200
F1159       F  0.95228164  0.62786201  0.57833994    -0.15200
F1160       F  0.95289113  0.58721580  0.62065988    -0.12900
C1161       C  0.72446244  0.03164675  0.56273111     0.25200
C1162       C  0.72342923  0.01653981  0.53594452    -0.23000
C1163       C  0.72586202  0.03290539  0.51011439     0.20100
C1164       C  0.72421278  0.06346401  0.51088583     0.25100
C1165       C  0.72043515  0.07827758  0.53753621    -0.22900
C1166       C  0.72306542  0.06216048  0.56350828     0.20000
F1167       F  0.72088790  0.07554903  0.58981079    -0.12900
F1168       F  0.72317148  0.01694522  0.58831384    -0.15200
F1169       F  0.72282731  0.07810242  0.48526408    -0.15200
F1170       F  0.72629165  0.01937342  0.48378431    -0.12900
C1171       C  0.51706000  0.03192840  0.77578240     0.25200
C1172       C  0.49229230  0.01426280  0.76891714    -0.23000
C1173       C  0.46446962  0.02785478  0.76625564     0.20100
C1174       C  0.46255676  0.05833023  0.76433919     0.25100
C1175       C  0.48839980  0.07581749  0.76546129    -0.22900
C1176       C  0.51518717  0.06245794  0.77393259     0.20000
F1177       F  0.54033257  0.07857385  0.77730605    -0.12900
F1178       F  0.54383459  0.01962078  0.78115072    -0.15200
F1179       F  0.43585475  0.07022585  0.75775044    -0.15200
F1180       F  0.43957833  0.01172857  0.76127686    -0.12900
C1181       C  0.59866386  0.98445796  0.61365075     0.25200
C1182       C  0.61969963  0.96203268  0.61250963    -0.23000
C1183       C  0.62196799  0.94236071  0.63584382     0.20100
C1184       C  0.60150826  0.94324589  0.65841311     0.25100
C1185       C  0.57853362  0.96386974  0.65798923    -0.22900
C1186       C  0.57829195  0.98543346  0.63625279     0.20000
F1187       F  0.55726788  0.00649804  0.63585901    -0.12900
F1188       F  0.59681484  0.00461261  0.59211151    -0.15200
F1189       F  0.60267441  0.92222322  0.67914638    -0.15200
F1190       F  0.64222536  0.92057661  0.63558862    -0.12900
C1191       C  0.25767754  0.03403499  0.55925784     0.25200
C1192       C  0.26279920  0.01747542  0.53389208    -0.23000
C1193       C  0.26127646  0.03188618  0.50682572     0.20100
C1194       C  0.26071412  0.06245416  0.50558294     0.25100
C1195       C  0.26139109  0.07918715  0.53138168    -0.22900
C1196       C  0.25687336  0.06463204  0.55799163     0.20000
F1197       F  0.25515093  0.07996032  0.58325985    -0.12900
F1198       F  0.25675900  0.02094701  0.58570795    -0.15200
F1199       F  0.26362109  0.07546250  0.47923473    -0.15200
F1200       F  0.26433676  0.01679109  0.48156456    -0.12900
C1201       C  0.40648188  0.98733761  0.60829071     0.25200
C1202       C  0.37975766  0.97185198  0.61223030    -0.23000
C1203       C  0.37369686  0.95992606  0.63976566     0.20100
C1204       C  0.39533468  0.96040083  0.66167968     0.25100
C1205       C  0.42344223  0.97263162  0.65635644    -0.22900
C1206       C  0.42802764  0.98790605  0.63023854     0.20000
F1207       F  0.45424025  0.00149745  0.62486608    -0.12900
F1208       F  0.41282030  0.00023697  0.58248844    -0.15200
F1209       F  0.38934647  0.94716229  0.68738929    -0.15200
F1210       F  0.34767754  0.94593008  0.64495746    -0.12900
C1211       C  0.46602945  0.03133969  0.29874462     0.25200
C1212       C  0.49277160  0.01579284  0.30121288    -0.23000
C1213       C  0.51956294  0.03135398  0.29777268     0.20100
C1214       C  0.51979106  0.06196651  0.29814582     0.25100
C1215       C  0.49319437  0.07750991  0.30169149    -0.22900
C1216       C  0.46622050  0.06193019  0.29918362     0.20000
F1217       F  0.43989193  0.07598442  0.30090616    -0.12900
F1218       F  0.43954633  0.01715485  0.29966379    -0.15200
F1219       F  0.54633557  0.07607897  0.29874528    -0.15200
F1220       F  0.54588640  0.01717063  0.29778709    -0.12900
C1221       C  0.39426970  0.94602699  0.41525291     0.25200
C1222       C  0.41755494  0.96655686  0.41562729    -0.23000
C1223       C  0.41740219  0.98916555  0.43643934     0.20100
C1224       C  0.39574403  0.98968073  0.45799726     0.25100
C1225       C  0.37392610  0.96763523  0.45897524    -0.22900
C1226       C  0.37258529  0.94667182  0.43657177     0.20000
F1227       F  0.35179507  0.92511912  0.43655857    -0.12900
F1228       F  0.39372773  0.92369231  0.39576030    -0.15200
F1229       F  0.39698592  0.01094079  0.47864697    -0.15200
F1230       F  0.43888353  0.01005335  0.43672823    -0.12900
C1231       C  0.59874900  0.95256951  0.40913620     0.25200
C1232       C  0.57344374  0.97002430  0.41240186    -0.23000
C1233       C  0.57215967  0.98964298  0.43600453     0.20100
C1234       C  0.59387112  0.98903495  0.45780931     0.25100
C1235       C  0.61723245  0.96894953  0.45622246    -0.22900
C1236       C  0.62050465  0.95210562  0.43082929     0.20000
F1237       F  0.64317033  0.93296541  0.42814241    -0.12900
F1238       F  0.60126800  0.93384611  0.38633788    -0.15200
F1239       F  0.59095874  0.00679387  0.48132479    -0.15200
F1240       F  0.54889002  0.00800416  0.43912052    -0.12900
C1241       C  0.72987214  0.52199100  0.01821968     0.25200
C1242       C  0.72733333  0.54821786  0.00245188    -0.23000
C1243       C  0.73031704  0.57470522  0.01791088     0.20100
C1244       C  0.72930471  0.57499157  0.04844006     0.25100
C1245       C  0.72562921  0.54875057  0.06397675    -0.22900
C1246       C  0.72914167  0.52227701  0.04875597     0.20000
F1247       F  0.72829817  0.49644596  0.06311775    -0.12900
F1248       F  0.72944521  0.49586847  0.00420401    -0.15200
F1249       F  0.72792747  0.60113935  0.06230908    -0.15200
F1250       F  0.73017864  0.60057897  0.00361191    -0.12900
C1251       C  0.45967898  0.77590087  0.01754900     0.25200
C1252       C  0.48672676  0.77861421  0.00262046    -0.23000
C1253       C  0.51200436  0.78746058  0.01872253     0.20100
C1254       C  0.51151760  0.78789108  0.04929727     0.25100
C1255       C  0.48578285  0.77936562  0.06427999    -0.22900
C1256       C  0.45921727  0.77619865  0.04808837     0.20000
F1257       F  0.43335964  0.76962263  0.06156350    -0.12900
F1258       F  0.43423575  0.76920089  0.00293068    -0.15200
F1259       F  0.53714166  0.79338708  0.06408473    -0.15200
F1260       F  0.53809563  0.79258158  0.00511409    -0.12900
C1261       C  0.60340678  0.67768553  0.93389713     0.25200
C1262       C  0.57983611  0.67649578  0.95369730    -0.23000
C1263       C  0.57981783  0.65480307  0.97529410     0.20100
C1264       C  0.60037740  0.63230599  0.97441669     0.25100
C1265       C  0.62137758  0.63120761  0.95202931    -0.22900
C1266       C  0.62401208  0.65509523  0.93297763     0.20000
F1267       F  0.64472847  0.65540324  0.91171429    -0.12900
F1268       F  0.60489208  0.69904467  0.91352959    -0.15200
F1269       F  0.59837862  0.61058657  0.99435091    -0.15200
F1270       F  0.55847779  0.65401083  0.99595413    -0.12900
C1271       C  0.26307907  0.57838318  0.01548290     0.25200
C1272       C  0.26242201  0.55143647  0.00056177    -0.23000
C1273       C  0.25531805  0.52618696  0.01657080     0.20100
C1274       C  0.25460598  0.52705178  0.04711351     0.25100
C1275       C  0.26098976  0.55318197  0.06223639    -0.22900
C1276       C  0.26231755  0.57925063  0.04602920     0.20000
F1277       F  0.26652727  0.60532436  0.05960815    -0.12900
F1278       F  0.26812580  0.60363490  0.00091312    -0.15200
F1279       F  0.25111620  0.50162274  0.06179020    -0.15200
F1280       F  0.25243235  0.49996190  0.00299762    -0.12900
C1281       C  0.37685726  0.64181702  0.94782934     0.25200
C1282       C  0.38489261  0.61264351  0.95273168    -0.23000
C1283       C  0.41457835  0.60612374  0.95957143     0.20100
C1284       C  0.43605590  0.62811598  0.95978627     0.25100
C1285       C  0.42833922  0.65696984  0.95271379    -0.22900
C1286       C  0.39839489  0.66373070  0.94758958     0.20000
F1287       F  0.38996479  0.69138152  0.94122939    -0.12900
F1288       F  0.34827236  0.64910272  0.94213434    -0.15200
F1289       F  0.46468477  0.62066396  0.96507399    -0.15200
F1290       F  0.42333649  0.57821116  0.96418754    -0.12900
C1291       C  0.52385406  0.31627114  0.01974350     0.25200
C1292       C  0.49784692  0.31598456  0.00249110    -0.23000
C1293       C  0.47061213  0.31064960  0.01634999     0.20100
C1294       C  0.46881840  0.31124569  0.04681679     0.25100
C1295       C  0.49425047  0.31712069  0.06394969    -0.22900
C1296       C  0.52206574  0.31694366  0.05018825     0.20000
F1297       F  0.54739122  0.32144509  0.06579891    -0.12900
F1298       F  0.55085128  0.31987823  0.00737490    -0.15200
F1299       F  0.44166964  0.30954495  0.05922832    -0.15200
F1300       F  0.44511999  0.30849158  0.00053795    -0.12900
C1301       C  0.41330411  0.44191692  0.97326422     0.25200
C1302       C  0.41536608  0.42133104  0.95064310    -0.23000
C1303       C  0.39224697  0.41927556  0.92992474     0.20100
C1304       C  0.36934424  0.43960588  0.92988434     0.25100
C1305       C  0.36934338  0.46242647  0.95043740    -0.22900
C1306       C  0.39042982  0.46222446  0.97322776     0.20000
F1307       F  0.39014531  0.48286729  0.99449972    -0.12900
F1308       F  0.43430519  0.44350217  0.99458205    -0.15200
F1309       F  0.34868905  0.43828363  0.90823022    -0.15200
F1310       F  0.39305923  0.39924507  0.90810534    -0.12900
C1311       C  0.60050885  0.42362891  0.94192510     0.25200
C1312       C  0.57451818  0.42686373  0.95826825    -0.23000
C1313       C  0.57189511  0.45106202  0.97693312     0.20100
C1314       C  0.59253146  0.47379955  0.97574289     0.25100
C1315       C  0.61616535  0.47249796  0.95600491    -0.22900
C1316       C  0.62112192  0.44634127  0.94068813     0.20000
F1317       F  0.64460520  0.44346905  0.92263691    -0.12900
F1318       F  0.60481108  0.39968787  0.92502558    -0.15200
F1319       F  0.58824861  0.49777528  0.99257946    -0.15200
F1320       F  0.54833242  0.45366660  0.99492838    -0.12900
loop_ 
_geom_bond_atom_site_label_1 
_geom_bond_atom_site_label_2 
_geom_bond_distance 
_geom_bond_site_symmetry_2 
_ccdc_geom_bond_type 
O1            C4   1.268       .  A
O1           Cd6   2.421       .  S
C2           O11   1.267       .  A
C2            O7   1.269       .  A
C2         C1302   1.475       .  S
O3            C9   1.274       .  A
O3           Cd6   2.524       .  S
C4           O12   1.267       .  A
C4         C1312   1.473       .  S
C5           O10   1.265       .  A
C5            O8   1.264       .  A
C5         C1292   1.491   1_556  S
Cd6          O13   2.441       .  S
Cd6          O12   2.422       .  S
Cd6          O11   2.425       .  S
Cd6           O7   2.436       .  S
Cd6          O10   2.471       .  S
Cd6           O8   2.473       .  S
C9           O13   1.260       .  A
C9          C464   1.485       .  S
O14          C17   1.266       .  A
O14         Cd19   2.401       .  S
C15          O24   1.267       .  A
C15          O20   1.267       .  A
C15        C1282   1.473       .  S
O16          C22   1.276       .  A
O16         Cd19   2.533       .  S
C17          O25   1.269       .  A
C17        C1305   1.476       .  S
C18          O23   1.266       .  A
C18          O21   1.266       .  A
C18        C1272   1.495   1_556  S
Cd19         O26   2.433       .  S
Cd19         O25   2.452       .  S
Cd19         O24   2.415       .  S
Cd19         O20   2.423       .  S
Cd19         O23   2.484       .  S
Cd19         O21   2.489       .  S
C22          O26   1.258       .  A
C22         C476   1.484       .  S
O27          C30   1.266       .  A
O27         Cd32   2.416       .  S
C28          O37   1.269       .  A
C28          O33   1.266       .  A
C28        C1262   1.473       .  S
O29          C35   1.275       .  A
O29         Cd32   2.544       .  S
C30          O38   1.268       .  A
C30        C1285   1.474       .  S
C31          O36   1.265       .  A
C31          O34   1.266       .  A
C31        C1252   1.495   1_556  S
Cd32         O39   2.453       .  S
Cd32         O38   2.426       .  S
Cd32         O37   2.451       .  S
Cd32         O33   2.394       .  S
Cd32         O36   2.487       .  S
Cd32         O34   2.494       .  S
C35          O39   1.258       .  A
C35         C572   1.490       .  S
O40          C43   1.268       .  A
O40         Cd45   2.422       .  S
C41          O50   1.267       .  A
C41          O46   1.269       .  A
C41        C1315   1.476       .  S
O42          C48   1.275       .  A
O42         Cd45   2.516       .  S
C43          O51   1.267       .  A
C43        C1265   1.475       .  S
C44          O49   1.266       .  A
C44          O47   1.264       .  A
C44        C1242   1.493   1_556  S
Cd45         O52   2.448       .  S
Cd45         O51   2.438       .  S
Cd45         O50   2.412       .  S
Cd45         O46   2.436       .  S
Cd45         O49   2.492       .  S
Cd45         O47   2.477       .  S
C48          O52   1.261       .  A
C48         C548   1.486       .  S
O53          C56   1.267       .  A
O53         Cd58   2.442       .  S
C54          O63   1.267       .  A
C54          O59   1.267       .  A
C54        C1232   1.475       .  S
O55          C61   1.274       .  A
O55         Cd58   2.541       .  S
C56          O64   1.267       .  A
C56        C1222   1.474       .  S
C57          O62   1.265       .  A
C57          O60   1.265       .  A
C57        C1212   1.493   1_565  S
Cd58         O65   2.450       .  S
Cd58         O64   2.415       .  S
Cd58         O63   2.424       .  S
Cd58         O59   2.427       .  S
Cd58         O62   2.482       .  S
Cd58         O60   2.482       .  S
C61          O65   1.259       .  A
C61         C500   1.489       .  S
O66          C69   1.267       .  A
O66         Cd71   2.419       .  S
C67          O76   1.267       .  A
C67          O72   1.267       .  A
C67        C1225   1.473       .  S
O68          C74   1.275       .  A
O68         Cd71   2.550       .  S
C69          O77   1.269       .  A
C69        C1202   1.479       .  S
C70          O75   1.265       .  A
C70          O73   1.266       .  A
C70        C1192   1.496   1_565  S
Cd71         O78   2.458       .  S
Cd71         O77   2.443       .  S
Cd71         O76   2.410       .  S
Cd71         O72   2.434       .  S
Cd71         O75   2.487       .  S
Cd71         O73   2.498       .  S
C74          O78   1.259       .  A
C74         C488   1.492       .  S
O79          C82   1.266       .  A
O79         Cd84   2.427       .  S
C80          O89   1.268       .  A
C80          O85   1.267       .  A
C80        C1185   1.473       .  S
O81          C87   1.267       .  A
O81         Cd84   2.493       .  S
C82          O90   1.267       .  A
C82        C1205   1.477       .  S
C83          O88   1.275       .  A
C83          O86   1.260       .  A
C83         C560   1.491       .  S
Cd84         O91   2.480       .  S
Cd84         O90   2.437       .  S
Cd84         O89   2.436       .  S
Cd84         O85   2.411       .  S
Cd84         O88   2.534       .  S
Cd84         O86   2.467       .  S
C87          O91   1.265       .  A
C87        C1172   1.493   1_565  S
O92          C95   1.268       .  A
O92         Cd97   2.420       .  S
C93         O102   1.267       .  A
C93          O98   1.268       .  A
C93        C1182   1.470       .  S
O94         C100   1.275       .  A
O94         Cd97   2.522       .  S
C95         O103   1.268       .  A
C95        C1235   1.472       .  S
C96         O101   1.265       .  A
C96          O99   1.266       .  A
C96        C1162   1.492   1_565  S
Cd97        O104   2.441       .  S
Cd97        O103   2.421       .  S
Cd97        O102   2.425       .  S
Cd97         O98   2.412       .  S
Cd97        O101   2.460       .  S
Cd97         O99   2.481       .  S
C100        O104   1.259       .  A
C100        C596   1.485       .  S
O105        C108   1.265       .  A
O105       Cd110   2.407       .  S
C106        O115   1.267       .  A
C106        O111   1.266       .  A
C106       C1152   1.474       .  S
O107        C113   1.274       .  A
O107       Cd110   2.533       .  S
C108        O116   1.269       .  A
C108       C1142   1.476       .  S
C109        O114   1.267       .  A
C109        O112   1.264       .  A
C109       C1132   1.493       .  S
Cd110       O117   2.467       .  S
Cd110       O116   2.456       .  S
Cd110       O115   2.414       .  S
Cd110       O111   2.423       .  S
Cd110       O114   2.495       .  S
Cd110       O112   2.478       .  S
C113        O117   1.259       .  A
C113        C536   1.489       .  S
O118        C121   1.267       .  A
O118       Cd123   2.413       .  S
C119        O128   1.266       .  A
C119        O124   1.268       .  A
C119       C1155   1.477       .  S
O120        C126   1.265       .  A
O120       Cd123   2.484       .  S
C121        O129   1.268       .  A
C121       C1122   1.474       .  S
C122        O127   1.274       .  A
C122        O125   1.260       .  A
C122        C584   1.485       .  S
Cd123       O130   2.477       .  S
Cd123       O129   2.439       .  S
Cd123       O128   2.412       .  S
Cd123       O124   2.444       .  S
Cd123       O127   2.513       .  S
Cd123       O125   2.457       .  S
C126        O130   1.265       .  A
C126       C1112   1.491       .  S
O131        C134   1.267       .  A
O131       Cd136   2.425       .  S
C132        O141   1.267       .  A
C132        O137   1.267       .  A
C132       C1145   1.475       .  S
O133        C139   1.273       .  A
O133       Cd136   2.507       .  S
C134        O142   1.267       .  A
C134       C1102   1.477       .  S
C135        O140   1.266       .  A
C135        O138   1.264       .  A
C135       C1092   1.490       .  S
Cd136       O143   2.468       .  S
Cd136       O142   2.431       .  S
Cd136       O141   2.429       .  S
Cd136       O137   2.425       .  S
Cd136       O140   2.489       .  S
Cd136       O138   2.467       .  S
C139        O143   1.260       .  A
C139        C524   1.485       .  S
O144        C147   1.267       .  A
O144       Cd149   2.429       .  S
C145        O154   1.268       .  A
C145        O150   1.267       .  A
C145       C1105   1.477       .  S
O146        C152   1.272       .  A
O146       Cd149   2.505       .  S
C147        O155   1.267       .  A
C147       C1125   1.475       .  S
C148        O153   1.263       .  A
C148        O151   1.266       .  A
C148       C1082   1.489       .  S
Cd149       O156   2.453       .  S
Cd149       O155   2.426       .  S
Cd149       O154   2.436       .  S
Cd149       O150   2.424       .  S
Cd149       O153   2.455       .  S
Cd149       O151   2.484       .  S
C152        O156   1.260       .  A
C152        C512   1.482       .  S
O157        C160   1.266       .  A
O157       Cd162   2.402       .  S
C158        O167   1.267       .  A
C158        O163   1.266       .  A
C158       C1072   1.477       .  S
O159        C165   1.274       .  A
O159       Cd162   2.524       .  S
C160        O168   1.270       .  A
C160       C1065   1.476       .  S
C161        O166   1.266       .  A
C161        O164   1.265       .  A
C161       C1295   1.491       .  S
Cd162       O169   2.437       .  S
Cd162       O168   2.452       .  S
Cd162       O167   2.443       .  S
Cd162       O163   2.412       .  S
Cd162       O166   2.473       .  S
Cd162       O164   2.477       .  S
C165        O169   1.258       .  A
C165        C404   1.483       .  S
O170        C173   1.268       .  A
O170       Cd175   2.421       .  S
C171        O180   1.268       .  A
C171        O176   1.267       .  A
C171       C1062   1.475       .  S
O172        C178   1.276       .  A
O172       Cd175   2.542       .  S
C173        O181   1.268       .  A
C173       C1052   1.466       .  S
C174        O179   1.266       .  A
C174        O177   1.265       .  A
C174       C1275   1.495       .  S
Cd175       O182   2.452       .  S
Cd175       O181   2.405       .  S
Cd175       O180   2.432       .  S
Cd175       O176   2.418       .  S
Cd175       O179   2.488       .  S
Cd175       O177   2.482       .  S
C178        O182   1.259       .  A
C178        C392   1.490       .  S
O183        C186   1.267       .  A
O183       Cd188   2.415       .  S
C184        O193   1.267       .  A
C184        O189   1.269       .  A
C184       C1055   1.467       .  S
O185        C191   1.275       .  A
O185       Cd188   2.529       .  S
C186        O194   1.268       .  A
C186       C1042   1.476       .  S
C187        O192   1.267       .  A
C187        O190   1.263       .  A
C187       C1255   1.494       .  S
Cd188       O195   2.447       .  S
Cd188       O194   2.449       .  S
Cd188       O193   2.401       .  S
Cd188       O189   2.423       .  S
Cd188       O192   2.496       .  S
Cd188       O190   2.465       .  S
C191        O195   1.259       .  A
C191        C332   1.487       .  S
O196        C199   1.268       .  A
O196       Cd201   2.432       .  S
C197        O206   1.267       .  A
C197        O202   1.267       .  A
C197       C1045   1.477       .  S
O198        C204   1.274       .  A
O198       Cd201   2.533       .  S
C199        O207   1.267       .  A
C199       C1075   1.479       .  S
C200        O205   1.265       .  A
C200        O203   1.266       .  A
C200       C1245   1.493       .  S
Cd201       O208   2.460       .  S
Cd201       O207   2.434       .  S
Cd201       O206   2.450       .  S
Cd201       O202   2.428       .  S
Cd201       O205   2.477       .  S
Cd201       O203   2.493       .  S
C204        O208   1.259       .  A
C204        C320   1.488       .  S
O209        C212   1.269       .  A
O209       Cd214   2.408       .  S
C210        O219   1.266       .  A
C210        O215   1.268       .  A
C210       C1032   1.467       .  S
O211        C217   1.276       .  A
O211       Cd214   2.530       .  S
C212        O220   1.269       .  A
C212       C1022   1.474       .  S
C213        O218   1.266       .  A
C213        O216   1.265       .  A
C213       C1175   1.496       .  S
Cd214       O221   2.445       .  S
Cd214       O220   2.422       .  S
Cd214       O219   2.419       .  S
Cd214       O215   2.412       .  S
Cd214       O218   2.498       .  S
Cd214       O216   2.483       .  S
C217        O221   1.259       .  A
C217        C380   1.488       .  S
O222        C225   1.268       .  A
O222       Cd227   2.389       .  S
C223        O232   1.266       .  A
C223        O228   1.268       .  A
C223       C1012   1.471       .  S
O224        C230   1.275       .  A
O224       Cd227   2.515       .  S
C225        O233   1.269       .  A
C225       C1035   1.465       .  S
C226        O231   1.264       .  A
C226        O229   1.267       .  A
C226       C1165   1.492       .  S
Cd227       O234   2.431       .  S
Cd227       O233   2.420       .  S
Cd227       O232   2.404       .  S
Cd227       O228   2.420       .  S
Cd227       O231   2.458       .  S
Cd227       O229   2.487       .  S
C230        O234   1.259       .  A
C230        C368   1.481       .  S
O235        C238   1.267       .  A
O235       Cd240   2.418       .  S
C236        O245   1.269       .  A
C236        O241   1.268       .  A
C236       C1025   1.471       .  S
O237        C243   1.275       .  A
O237       Cd240   2.526       .  S
C238        O246   1.267       .  A
C238       C1002   1.471       .  S
C239        O244   1.264       .  A
C239        O242   1.267       .  A
C239       C1195   1.493       .  S
Cd240       O247   2.444       .  S
Cd240       O246   2.417       .  S
Cd240       O245   2.418       .  S
Cd240       O241   2.396       .  S
Cd240       O244   2.470       .  S
Cd240       O242   2.490       .  S
C243        O247   1.258       .  A
C243        C428   1.486       .  S
O248        C251   1.265       .  A
O248       Cd253   2.394       .  S
C249        O258   1.268       .  A
C249        O254   1.266       .  A
C249       C1005   1.470       .  S
O250        C256   1.274       .  A
O250       Cd253   2.532       .  S
C251        O259   1.269       .  A
C251       C1015   1.471       .  S
C252        O257   1.265       .  A
C252        O255   1.267       .  A
C252       C1215   1.493       .  S
Cd253       O260   2.454       .  S
Cd253       O259   2.433       .  S
Cd253       O258   2.416       .  S
Cd253       O254   2.405       .  S
Cd253       O257   2.464       .  S
Cd253       O255   2.486       .  S
C256        O260   1.258       .  A
C256        C416   1.486       .  S
O261        C264   1.268       .  A
O261       Cd266   2.411       .  S
C262        O271   1.268       .  A
C262        O267   1.268       .  A
C262        C982   1.481       .  S
O263        C269   1.264       .  A
O263       Cd266   2.471       .  S
C264        O272   1.267       .  A
C264        C992   1.474       .  S
C265        O270   1.274       .  A
C265        O268   1.259       .  A
C265        C440   1.484       .  S
Cd266       O273   2.483       .  S
Cd266       O272   2.433       .  S
Cd266       O271   2.441       .  S
Cd266       O267   2.437       .  S
Cd266       O270   2.511       .  S
Cd266       O268   2.453       .  S
C269        O273   1.265       .  A
C269       C1085   1.490       .  S
O274        C277   1.267       .  A
O274       Cd279   2.441       .  S
C275        O284   1.267       .  A
C275        O280   1.267       .  A
C275        C985   1.481       .  S
O276        C282   1.273       .  A
O276       Cd279   2.543       .  S
C277        O285   1.267       .  A
C277        C972   1.478       .  S
C278        O283   1.264       .  A
C278        O281   1.266       .  A
C278       C1095   1.492       .  S
Cd279       O286   2.451       .  S
Cd279       O285   2.432       .  S
Cd279       O284   2.445       .  S
Cd279       O280   2.444       .  S
Cd279       O283   2.473       .  S
Cd279       O281   2.499       .  S
C282        O286   1.260       .  A
C282        C452   1.489       .  S
O287        C290   1.267       .  A
O287       Cd292   2.422       .  S
C288        O297   1.268       .  A
C288        O293   1.267       .  A
C288        C975   1.477       .  S
O289        C295   1.273       .  A
O289       Cd292   2.509       .  S
C290        O298   1.266       .  A
C290        C965   1.474       .  S
C291        O296   1.265       .  A
C291        O294   1.265       .  A
C291       C1135   1.489       .  S
Cd292       O299   2.445       .  S
Cd292       O298   2.427       .  S
Cd292       O297   2.428       .  S
Cd292       O293   2.431       .  S
Cd292       O296   2.468       .  S
Cd292       O294   2.479       .  S
C295        O299   1.258       .  A
C295        C356   1.481       .  S
O300        C303   1.267       .  A
O300       Cd305   2.408       .  S
C301        O310   1.267       .  A
C301        O306   1.267       .  A
C301        C962   1.473       .  S
O302        C308   1.274       .  A
O302       Cd305   2.508       .  S
C303        O311   1.268       .  A
C303        C995   1.473       .  S
C304        O309   1.264       .  A
C304        O307   1.266       .  A
C304       C1115   1.491       .  S
Cd305       O312   2.436       .  S
Cd305       O311   2.447       .  S
Cd305       O310   2.411       .  S
Cd305       O306   2.421       .  S
Cd305       O309   2.473       .  S
Cd305       O307   2.480       .  S
C308        O312   1.259       .  A
C308        C344   1.480       .  S
C313        C314   1.548       .  S
C313        C319   1.545       .  S
C313        C317   1.539       .  S
C313        C932   1.549       .  S
C314        H321   1.083       .  S
C314        C315   1.370       .  D
C315        C952   1.500       .  S
C315        C316   1.544       .  S
C316        C320   1.552       .  S
C316        C318   1.546       .  S
C316        H322   1.110       .  S
C317        H323   1.083       .  S
C317        C318   1.370       .  D
C318        C942   1.502       .  S
C319        H324   1.084       .  S
C319        C320   1.366       .  D
C325        C326   1.546       .  S
C325        C331   1.534       .  S
C325        C329   1.547       .  S
C325        C915   1.545       .  S
C326        H333   1.083       .  S
C326        C327   1.370       .  D
C327        C922   1.503       .  S
C327        C328   1.547       .  S
C328        C332   1.553       .  S
C328        C330   1.544       .  S
C328        H334   1.110       .  S
C329        H335   1.085       .  S
C329        C330   1.371       .  D
C330        C955   1.501       .  S
C331        H336   1.082       .  S
C331        C332   1.363       .  D
C337        C338   1.548       .  S
C337        C343   1.539       .  S
C337        C341   1.540       .  S
C337        C882   1.545       .  S
C338        H345   1.080       .  S
C338        C339   1.372       .  D
C339        C905   1.504       .  S
C339        C340   1.546       .  S
C340        C344   1.550       .  S
C340        C342   1.544       .  S
C340        H346   1.110       .  S
C341        H347   1.084       .  S
C341        C342   1.370       .  D
C342        C892   1.501       .  S
C343        H348   1.084       .  S
C343        C344   1.361       .  D
C349        C350   1.545       .  S
C349        C355   1.539       .  S
C349        C353   1.536       .  S
C349        C862   1.540       .  S
C350        H357   1.085       .  S
C350        C351   1.367       .  D
C351        C872   1.496       .  S
C351        C352   1.543       .  S
C352        C356   1.553       .  S
C352        C354   1.547       .  S
C352        H358   1.110       .  S
C353        H359   1.084       .  S
C353        C354   1.370       .  D
C354        C902   1.503       .  S
C355        H360   1.088       .  S
C355        C356   1.363       .  D
C361        C362   1.534       .  S
C361        C367   1.542       .  S
C361        C365   1.548       .  S
C361        C835   1.540       .  S
C362        H369   1.080       .  S
C362        C363   1.368       .  D
C363        C842   1.497       .  S
C363        C364   1.546       .  S
C364        C368   1.550       .  S
C364        C366   1.545       .  S
C364        H370   1.110       .  S
C365        H371   1.087       .  S
C365        C366   1.372       .  D
C366        C852   1.503       .  S
C367        H372   1.081       .  S
C367        C368   1.362       .  D
C373        C374   1.546       .  S
C373        C379   1.533       .  S
C373        C377   1.551       .  S
C373        C815   1.550       .  S
C374        H381   1.084       .  S
C374        C375   1.373       .  D
C375        C855   1.507       .  S
C375        C376   1.549       .  S
C376        C380   1.555       .  S
C376        C378   1.547       .  S
C376        H382   1.109       .  S
C377        H383   1.083       .  S
C377        C378   1.372       .  D
C378        C822   1.510       .  S
C379        H384   1.083       .  S
C379        C380   1.363       .  D
C385        C386   1.532       .  S
C385        C391   1.547       .  S
C385        C389   1.547       .  S
C385        C792   1.542       .  S
C386        H393   1.102       .  S
C386        C387   1.365       .  D
C387        C802   1.497       .  S
C387        C388   1.545       .  S
C388        C392   1.552       .  S
C388        C390   1.547       .  S
C388        H394   1.109       .  S
C389        H395   1.091       .  S
C389        C390   1.370       .  D
C390        C925   1.502       .  S
C391        H396   1.084       .  S
C391        C392   1.364       .  D
C397        C398   1.538       .  S
C397        C403   1.543       .  S
C397        C401   1.546       .  S
C397        C782   1.545       .  S
C398        H405   1.084       .  S
C398        C399   1.370       .  D
C399        C945   1.502       .  S
C399        C400   1.545       .  S
C400        C404   1.550       .  S
C400        C402   1.544       .  S
C400        H406   1.110       .  S
C401        H407   1.085       .  S
C401        C402   1.371       .  D
C402        C805   1.498       .  S
C403        H408   1.082       .  S
C403        C404   1.363       .  D
C409        C410   1.549       .  S
C409        C415   1.544       .  S
C409        C413   1.538       .  S
C409        C785   1.546       .  S
C410        H417   1.087       .  S
C410        C411   1.371       .  D
C411        C775   1.501       .  S
C411        C412   1.544       .  S
C412        C416   1.550       .  S
C412        C414   1.543       .  S
C412        H418   1.110       .  S
C413        H419   1.083       .  S
C413        C414   1.369       .  D
C414        C845   1.497       .  S
C415        H420   1.082       .  S
C415        C416   1.363       .  D
C421        C422   1.541       .  S
C421        C427   1.541       .  S
C421        C425   1.546       .  S
C421        C762   1.547       .  S
C422        H429   1.083       .  S
C422        C423   1.373       .  D
C423        C825   1.512       .  S
C423        C424   1.552       .  S
C424        C428   1.553       .  S
C424        C426   1.547       .  S
C424        H430   1.109       .  S
C425        H431   1.084       .  S
C425        C426   1.369       .  D
C426        C772   1.502       .  S
C427        H432   1.085       .  S
C427        C428   1.362       .  D
C433        C434   1.545       .  S
C433        C439   1.541       .  S
C433        C437   1.538       .  S
C433        C795   1.542       .  S
C434        H441   1.082       .  S
C434        C435   1.370       .  D
C435        C895   1.503       .  S
C435        C436   1.549       .  S
C436        C440   1.551       .  S
C436        C438   1.546       .  S
C436        H442   1.110       .  S
C437        H443   1.082       .  S
C437        C438   1.371       .  D
C438        C752   1.498       .  S
C439        H444   1.084       .  S
C439        C440   1.360       .  D
C445        C446   1.547       .  S
C445        C451   1.547       .  S
C445        C449   1.536       .  S
C445        C765   1.546       .  S
C446        H453   1.084       .  S
C446        C447   1.368       .  D
C447        C755   1.499       .  S
C447        C448   1.544       .  S
C448        C452   1.550       .  S
C448        C450   1.542       .  S
C448        H454   1.110       .  S
C449        H455   1.083       .  S
C449        C450   1.369       .  D
C450        C875   1.498       .  S
C451        H456   1.086       .  S
C451        C452   1.367       .  D
C457        C458   1.552       .  S
C457        C463   1.536       .  S
C457        C461   1.547       .  S
C457        C812   1.551       .  S
C458        H465   1.083       .  S
C458        C459   1.371       .  D
C459        C732   1.504       .  S
C459        C460   1.543       .  S
C460        C464   1.550       .  S
C460        C462   1.541       .  S
C460        H466   1.110       .  S
C461        H467   1.085       .  S
C461        C462   1.372       .  D
C462        C742   1.498       .  S
C463        H468   1.082       .  S
C463        C464   1.364       .  D
C469        C470   1.536       .  S
C469        C475   1.541       .  S
C469        C473   1.549       .  S
C469        C865   1.541       .  S
C470        H477   1.084       .  S
C470        C471   1.369       .  D
C471        C725   1.504       .  S
C471        C472   1.548       .  S
C472        C476   1.554       .  S
C472        C474   1.547       .  S
C472        H478   1.110       .  S
C473        H479   1.079       .  S
C473        C474   1.370       .  D
C474        C735   1.504       .  S
C475        H480   1.086       .  S
C475        C476   1.363       .  D
C481        C482   1.536       .  S
C481        C487   1.546       .  S
C481        C485   1.545       .  S
C481        C885   1.545       .  S
C482        H489   1.082       .  S
C482        C483   1.368       .  D
C483        C702   1.499       .  S
C483        C484   1.546       .  S
C484        C488   1.556       .  S
C484        C486   1.543       .  S
C484        H490   1.110       .  S
C485        H491   1.083       .  S
C485        C486   1.367       .  D
C486        C712   1.496       .  S
C487        H492   1.084       .  S
C487        C488   1.368       .  D
C493        C494   1.546       .  S
C493        C499   1.538       .  S
C493        C497   1.547       .  S
C493        C912   1.546       .  S
C494        H501   1.084       .  S
C494        C495   1.370       .  D
C495        C692   1.497       .  S
C495        C496   1.543       .  S
C496        C500   1.550       .  S
C496        C498   1.542       .  S
C496        H502   1.110       .  S
C497        H503   1.084       .  S
C497        C498   1.369       .  D
C498        C705   1.498       .  S
C499        H504   1.084       .  S
C499        C500   1.365       .  D
C505        C506   1.539       .  S
C505        C511   1.541       .  S
C505        C509   1.545       .  S
C505        C935   1.547       .  S
C506        H513   1.085       .  S
C506        C507   1.371       .  D
C507        C672   1.501       .  S
C507        C508   1.543       .  S
C508        C512   1.550       .  S
C508        C510   1.545       .  S
C508        H514   1.109       .  S
C509        H515   1.084       .  S
C509        C510   1.371       .  D
C510        C682   1.505       .  S
C511        H516   1.084       .  S
C511        C512   1.364       .  D
C517        C518   1.543       .  S
C517        C523   1.540       .  S
C517        C521   1.536       .  S
C517        C832   1.540       .  S
C518        H525   1.085       .  S
C518        C519   1.370       .  D
C519        C662   1.501       .  S
C519        C520   1.548       .  S
C520        C524   1.552       .  S
C520        C522   1.546       .  S
C520        H526   1.109       .  S
C521        H527   1.083       .  S
C521        C522   1.369       .  D
C522        C675   1.500       .  S
C523        H528   1.082       .  S
C523        C524   1.363       .  D
C529        C530   1.539       .  S
C529        C535   1.541       .  S
C529        C533   1.547       .  S
C529        C652   1.546       .  S
C530        H537   1.082       .  S
C530        C531   1.371       .  D
C531        C642   1.504       .  S
C531        C532   1.546       .  S
C532        C536   1.555       .  S
C532        C534   1.545       .  S
C532        H538   1.109       .  S
C533        H539   1.083       .  S
C533        C534   1.371       .  D
C534        C665   1.503       .  S
C535        H540   1.085       .  S
C535        C536   1.363       .  D
C541        C542   1.547       .  S
C541        C547   1.544       .  S
C541        C545   1.539       .  S
C541        C655   1.545       .  S
C542        H549   1.086       .  S
C542        C543   1.368       .  D
C543        C745   1.494       .  S
C543        C544   1.541       .  S
C544        C548   1.551       .  S
C544        C546   1.547       .  S
C544        H550   1.110       .  S
C545        H551   1.083       .  S
C545        C546   1.371       .  D
C546        C635   1.504       .  S
C547        H552   1.084       .  S
C547        C548   1.364       .  D
C553        C554   1.549       .  S
C553        C559   1.534       .  S
C553        C557   1.546       .  S
C553        C622   1.546       .  S
C554        H561   1.083       .  S
C554        C555   1.370       .  D
C555        C715   1.497       .  S
C555        C556   1.541       .  S
C556        C560   1.555       .  S
C556        C558   1.548       .  S
C556        H562   1.110       .  S
C557        H563   1.085       .  S
C557        C558   1.372       .  D
C558        C612   1.504       .  S
C559        H564   1.081       .  S
C559        C560   1.363       .  D
C565        C566   1.546       .  S
C565        C571   1.536       .  S
C565        C569   1.547       .  S
C565        C625   1.546       .  S
C566        H573   1.084       .  S
C566        C567   1.370       .  D
C567        C632   1.504       .  S
C567        C568   1.548       .  S
C568        C572   1.555       .  S
C568        C570   1.546       .  S
C568        H574   1.110       .  S
C569        H575   1.083       .  S
C569        C570   1.370       .  D
C570        C722   1.503       .  S
C571        H576   1.082       .  S
C571        C572   1.364       .  D
C577        C578   1.543       .  S
C577        C583   1.542       .  S
C577        C581   1.540       .  S
C577        C602   1.547       .  S
C578        H585   1.085       .  S
C578        C579   1.371       .  D
C579        C685   1.504       .  S
C579        C580   1.547       .  S
C580        C584   1.552       .  S
C580        C582   1.547       .  S
C580        H586   1.109       .  S
C581        H587   1.084       .  S
C581        C582   1.371       .  D
C582        C645   1.505       .  S
C583        H588   1.085       .  S
C583        C584   1.363       .  D
C589        C590   1.539       .  S
C589        C595   1.544       .  S
C589        C593   1.548       .  S
C589        C605   1.546       .  S
C590        H597   1.083       .  S
C590        C591   1.370       .  D
C591        C615   1.501       .  S
C591        C592   1.544       .  S
C592        C596   1.549       .  S
C592        C594   1.544       .  S
C592        H598   1.110       .  S
C593        H599   1.083       .  S
C593        C594   1.372       .  D
C594        C695   1.499       .  S
C595        H600   1.085       .  S
C595        C596   1.362       .  D
C601        C602   1.414       .  A
C601        C606   1.403       .  A
C601        F608   1.357       .  S
C602        C603   1.415       .  A
C603        C604   1.405       .  A
C603        F610   1.357       .  S
C604        C605   1.414       .  A
C604        F609   1.357       .  S
C605        C606   1.415       .  A
C606        F607   1.357       .  S
C611        C612   1.412       .  A
C611        C616   1.403       .  A
C611        F618   1.358       .  S
C612        C613   1.409       .  A
C613        C614   1.409       .  A
C613        F620   1.357       .  S
C614        C615   1.409       .  A
C614        F619   1.357       .  S
C615        C616   1.409       .  A
C616        F617   1.358       .  S
C621        C622   1.414       .  A
C621        C626   1.405       .  A
C621        F628   1.357       .  S
C622        C623   1.415       .  A
C623        C624   1.404       .  A
C623        F630   1.356       .  S
C624        C625   1.414       .  A
C624        F629   1.357       .  S
C625        C626   1.414       .  A
C626        F627   1.358       .  S
C631        C632   1.410       .  A
C631        C636   1.409       .  A
C631        F638   1.357       .  S
C632        C633   1.410       .  A
C633        C634   1.404       .  A
C633        F640   1.358       .  S
C634        C635   1.410       .  A
C634        F639   1.358       .  S
C635        C636   1.411       .  A
C636        F637   1.357       .  S
C641        C642   1.410       .  A
C641        C646   1.404       .  A
C641        F648   1.358       .  S
C642        C643   1.410       .  A
C643        C644   1.411       .  A
C643        F650   1.357       .  S
C644        C645   1.411       .  A
C644        F649   1.357       .  S
C645        C646   1.410       .  A
C646        F647   1.358       .  S
C651        C652   1.414       .  A
C651        C656   1.404       .  A
C651        F658   1.357       .  S
C652        C653   1.414       .  A
C653        C654   1.404       .  A
C653        F660   1.357       .  S
C654        C655   1.415       .  A
C654        F659   1.357       .  S
C655        C656   1.414       .  A
C656        F657   1.357       .  S
C661        C662   1.410       .  A
C661        C666   1.401       .  A
C661        F668   1.358       .  S
C662        C663   1.409       .  A
C663        C664   1.408       .  A
C663        F670   1.357       .  S
C664        C665   1.410       .  A
C664        F669   1.357       .  S
C665        C666   1.411       .  A
C666        F667   1.358       .  S
C671        C672   1.411       .  A
C671        C676   1.409       .  A
C671        F678   1.357       .  S
C672        C673   1.409       .  A
C673        C674   1.401       .  A
C673        F680   1.358       .  S
C674        C675   1.409       .  A
C674        F679   1.358       .  S
C675        C676   1.409       .  A
C676        F677   1.357       .  S
C681        C682   1.412       .  A
C681        C686   1.411       .  A
C681        F688   1.357       .  S
C682        C683   1.410       .  A
C683        C684   1.398       .  A
C683        F690   1.358       .  S
C684        C685   1.410       .  A
C684        F689   1.358       .  S
C685        C686   1.412       .  A
C686        F687   1.357       .  S
C691        C692   1.409       .  A
C691        C696   1.406       .  A
C691        F698   1.357       .  S
C692        C693   1.408       .  A
C693        C694   1.402       .  A
C693        F700   1.358       .  S
C694        C695   1.409       .  A
C694        F699   1.357       .  S
C695        C696   1.410       .  A
C696        F697   1.358       .  S
C701        C702   1.409       .  A
C701        C706   1.410       .  A
C701        F708   1.357       .  S
C702        C703   1.409       .  A
C703        C704   1.401       .  A
C703        F710   1.358       .  S
C704        C705   1.408       .  A
C704        F709   1.358       .  S
C705        C706   1.409       .  A
C706        F707   1.357       .  S
C711        C712   1.409       .  A
C711        C716   1.409       .  A
C711        F718   1.358       .  S
C712        C713   1.408       .  A
C713        C714   1.401       .  A
C713        F720   1.358       .  S
C714        C715   1.406       .  A
C714        F719   1.357       .  S
C715        C716   1.411       .  A
C716        F717   1.358       .  S
C721        C722   1.410       .  A
C721        C726   1.412       .  A
C721        F728   1.357       .  S
C722        C723   1.410       .  A
C723        C724   1.402       .  A
C723        F730   1.358       .  S
C724        C725   1.410       .  A
C724        F729   1.358       .  S
C725        C726   1.410       .  A
C726        F727   1.357       .  S
C731        C732   1.409       .  A
C731        C736   1.405       .  A
C731        F738   1.358       .  S
C732        C733   1.411       .  A
C733        C734   1.409       .  A
C733        F740   1.357       .  S
C734        C735   1.409       .  A
C734        F739   1.357       .  S
C735        C736   1.411       .  A
C736        F737   1.358       .  S
C741        C742   1.408       .  A
C741        C746   1.401       .  A
C741        F748   1.358       .  S
C742        C743   1.410       .  A
C743        C744   1.409       .  A
C743        F750   1.357       .  S
C744        C745   1.408       .  A
C744        F749   1.358       .  S
C745        C746   1.407       .  A
C746        F747   1.358       .  S
C751        C752   1.409       .  A
C751        C756   1.403       .  A
C751        F758   1.358       .  S
C752        C753   1.409       .  A
C753        C754   1.406       .  A
C753        F760   1.357       .  S
C754        C755   1.409       .  A
C754        F759   1.357       .  S
C755        C756   1.410       .  A
C756        F757   1.358       .  S
C761        C762   1.415       .  A
C761        C766   1.404       .  A
C761        F768   1.357       .  S
C762        C763   1.414       .  A
C763        C764   1.404       .  A
C763        F770   1.356       .  S
C764        C765   1.416       .  A
C764        F769   1.357       .  S
C765        C766   1.412       .  A
C766        F767   1.357       .  S
C771        C772   1.410       .  A
C771        C776   1.412       .  A
C771        F778   1.357       .  S
C772        C773   1.409       .  A
C773        C774   1.402       .  A
C773        F780   1.358       .  S
C774        C775   1.408       .  A
C774        F779   1.358       .  S
C775        C776   1.410       .  A
C776        F777   1.358       .  S
C781        C782   1.414       .  A
C781        C786   1.405       .  A
C781        F788   1.357       .  S
C782        C783   1.413       .  A
C783        C784   1.403       .  A
C783        F790   1.357       .  S
C784        C785   1.415       .  A
C784        F789   1.357       .  S
C785        C786   1.413       .  A
C786        F787   1.357       .  S
C791        C792   1.413       .  A
C791        C796   1.400       .  A
C791        F798   1.357       .  S
C792        C793   1.415       .  A
C793        C794   1.405       .  A
C793        F800   1.357       .  S
C794        C795   1.413       .  A
C794        F799   1.357       .  S
C795        C796   1.413       .  A
C796        F797   1.357       .  S
C801        C802   1.408       .  A
C801        C806   1.409       .  A
C801        F808   1.357       .  S
C802        C803   1.409       .  A
C803        C804   1.400       .  A
C803        F810   1.358       .  S
C804        C805   1.408       .  A
C804        F809   1.358       .  S
C805        C806   1.410       .  A
C806        F807   1.357       .  S
C811        C812   1.415       .  A
C811        C816   1.405       .  A
C811        F818   1.356       .  S
C812        C813   1.416       .  A
C813        C814   1.409       .  A
C813        F820   1.358       .  S
C814        C815   1.415       .  A
C814        F819   1.358       .  S
C815        C816   1.414       .  A
C816        F817   1.357       .  S
C821        C822   1.411       .  A
C821        C826   1.410       .  A
C821        F828   1.357       .  S
C822        C823   1.411       .  A
C823        C824   1.407       .  A
C823        F830   1.358       .  S
C824        C825   1.413       .  A
C824        F829   1.358       .  S
C825        C826   1.411       .  A
C826        F827   1.357       .  S
C831        C832   1.414       .  A
C831        C836   1.403       .  A
C831        F838   1.357       .  S
C832        C833   1.413       .  A
C833        C834   1.401       .  A
C833        F840   1.357       .  S
C834        C835   1.414       .  A
C834        F839   1.357       .  S
C835        C836   1.412       .  A
C836        F837   1.357       .  S
C841        C842   1.409       .  A
C841        C846   1.401       .  A
C841        F848   1.358       .  S
C842        C843   1.408       .  A
C843        C844   1.408       .  A
C843        F850   1.357       .  S
C844        C845   1.409       .  A
C844        F849   1.357       .  S
C845        C846   1.409       .  A
C846        F847   1.358       .  S
C851        C852   1.408       .  A
C851        C856   1.403       .  A
C851        F858   1.358       .  S
C852        C853   1.411       .  A
C853        C854   1.413       .  A
C853        F860   1.358       .  S
C854        C855   1.411       .  A
C854        F859   1.357       .  S
C855        C856   1.411       .  A
C856        F857   1.358       .  S
C861        C862   1.413       .  A
C861        C866   1.402       .  A
C861        F868   1.358       .  S
C862        C863   1.414       .  A
C863        C864   1.401       .  A
C863        F870   1.356       .  S
C864        C865   1.414       .  A
C864        F869   1.356       .  S
C865        C866   1.414       .  A
C866        F867   1.358       .  S
C871        C872   1.408       .  A
C871        C876   1.410       .  A
C871        F878   1.358       .  S
C872        C873   1.408       .  A
C873        C874   1.399       .  A
C873        F880   1.358       .  S
C874        C875   1.408       .  A
C874        F879   1.358       .  S
C875        C876   1.410       .  A
C876        F877   1.357       .  S
C881        C882   1.415       .  A
C881        C886   1.404       .  A
C881        F888   1.357       .  S
C882        C883   1.413       .  A
C883        C884   1.403       .  A
C883        F890   1.356       .  S
C884        C885   1.417       .  A
C884        F889   1.356       .  S
C885        C886   1.412       .  A
C886        F887   1.357       .  S
C891        C892   1.408       .  A
C891        C896   1.403       .  A
C891        F898   1.358       .  S
C892        C893   1.410       .  A
C893        C894   1.411       .  A
C893        F900   1.358       .  S
C894        C895   1.410       .  A
C894        F899   1.357       .  S
C895        C896   1.410       .  A
C896        F897   1.358       .  S
C901        C902   1.410       .  A
C901        C906   1.400       .  A
C901        F908   1.358       .  S
C902        C903   1.410       .  A
C903        C904   1.411       .  A
C903        F910   1.358       .  S
C904        C905   1.411       .  A
C904        F909   1.357       .  S
C905        C906   1.409       .  A
C906        F907   1.358       .  S
C911        C912   1.414       .  A
C911        C916   1.404       .  A
C911        F918   1.357       .  S
C912        C913   1.414       .  A
C913        C914   1.404       .  A
C913        F920   1.357       .  S
C914        C915   1.414       .  A
C914        F919   1.357       .  S
C915        C916   1.415       .  A
C916        F917   1.357       .  S
C921        C922   1.410       .  A
C921        C926   1.409       .  A
C921        F928   1.357       .  S
C922        C923   1.410       .  A
C923        C924   1.404       .  A
C923        F930   1.358       .  S
C924        C925   1.410       .  A
C924        F929   1.358       .  S
C925        C926   1.410       .  A
C926        F927   1.357       .  S
C931        C932   1.415       .  A
C931        C936   1.405       .  A
C931        F938   1.356       .  S
C932        C933   1.415       .  A
C933        C934   1.406       .  A
C933        F940   1.357       .  S
C934        C935   1.414       .  A
C934        F939   1.357       .  S
C935        C936   1.414       .  A
C936        F937   1.357       .  S
C941        C942   1.409       .  A
C941        C946   1.402       .  A
C941        F948   1.358       .  S
C942        C943   1.411       .  A
C943        C944   1.413       .  A
C943        F950   1.358       .  S
C944        C945   1.411       .  A
C944        F949   1.358       .  S
C945        C946   1.408       .  A
C946        F947   1.358       .  S
C951        C952   1.409       .  A
C951        C956   1.401       .  A
C951        F958   1.358       .  S
C952        C953   1.409       .  A
C953        C954   1.410       .  A
C953        F960   1.357       .  S
C954        C955   1.410       .  A
C954        F959   1.357       .  S
C955        C956   1.409       .  A
C956        F957   1.358       .  S
C961        C962   1.407       .  A
C961        C966   1.393       .  A
C961        F968   1.358       .  S
C962        C963   1.407       .  A
C963        C964   1.393       .  A
C963        F970   1.358       .  S
C964        C965   1.407       .  A
C964        F969   1.358       .  S
C965        C966   1.408       .  A
C966        F967   1.358       .  S
C971        C972   1.408       .  A
C971        C976   1.396       .  A
C971        F978   1.358       .  S
C972        C973   1.408       .  A
C973        C974   1.394       .  A
C973        F980   1.358       .  S
C974        C975   1.407       .  A
C974        F979   1.358       .  S
C975        C976   1.408       .  A
C976        F977   1.358       .  S
C981        C982   1.408       .  A
C981        C986   1.397       .  A
C981        F988   1.358       .  S
C982        C983   1.408       .  A
C983        C984   1.397       .  A
C983        F990   1.358       .  S
C984        C985   1.409       .  A
C984        F989   1.358       .  S
C985        C986   1.408       .  A
C986        F987   1.358       .  S
C991        C992   1.406       .  A
C991        C996   1.392       .  A
C991        F998   1.358       .  S
C992        C993   1.409       .  A
C993        C994   1.397       .  A
C993       F1000   1.358       .  S
C994        C995   1.407       .  A
C994        F999   1.358       .  S
C995        C996   1.406       .  A
C996        F997   1.358       .  S
C1001      C1002   1.407       .  A
C1001      C1006   1.391       .  A
C1001      F1008   1.358       .  S
C1002      C1003   1.407       .  A
C1003      C1004   1.394       .  A
C1003      F1010   1.358       .  S
C1004      C1005   1.408       .  A
C1004      F1009   1.359       .  S
C1005      C1006   1.405       .  A
C1006      F1007   1.358       .  S
C1011      C1012   1.406       .  A
C1011      C1016   1.393       .  A
C1011      F1018   1.358       .  S
C1012      C1013   1.407       .  A
C1013      C1014   1.392       .  A
C1013      F1020   1.358       .  S
C1014      C1015   1.405       .  A
C1014      F1019   1.358       .  S
C1015      C1016   1.408       .  A
C1016      F1017   1.359       .  S
C1021      C1022   1.408       .  A
C1021      C1026   1.394       .  A
C1021      F1028   1.358       .  S
C1022      C1023   1.407       .  A
C1023      C1024   1.392       .  A
C1023      F1030   1.358       .  S
C1024      C1025   1.406       .  A
C1024      F1029   1.358       .  S
C1025      C1026   1.407       .  A
C1026      F1027   1.358       .  S
C1031      C1032   1.404       .  A
C1031      C1036   1.392       .  A
C1031      F1038   1.358       .  S
C1032      C1033   1.407       .  A
C1033      C1034   1.394       .  A
C1033      F1040   1.358       .  S
C1034      C1035   1.405       .  A
C1034      F1039   1.358       .  S
C1035      C1036   1.405       .  A
C1036      F1037   1.358       .  S
C1041      C1042   1.407       .  A
C1041      C1046   1.394       .  A
C1041      F1048   1.358       .  S
C1042      C1043   1.408       .  A
C1043      C1044   1.397       .  A
C1043      F1050   1.358       .  S
C1044      C1045   1.408       .  A
C1044      F1049   1.358       .  S
C1045      C1046   1.406       .  A
C1046      F1047   1.358       .  S
C1051      C1052   1.405       .  A
C1051      C1056   1.396       .  A
C1051      F1058   1.358       .  S
C1052      C1053   1.405       .  A
C1053      C1054   1.390       .  A
C1053      F1060   1.358       .  S
C1054      C1055   1.406       .  A
C1054      F1059   1.358       .  S
C1055      C1056   1.405       .  A
C1056      F1057   1.358       .  S
C1061      C1062   1.406       .  A
C1061      C1066   1.393       .  A
C1061      F1068   1.358       .  S
C1062      C1063   1.408       .  A
C1063      C1064   1.396       .  A
C1063      F1070   1.358       .  S
C1064      C1065   1.407       .  A
C1064      F1069   1.358       .  S
C1065      C1066   1.408       .  A
C1066      F1067   1.358       .  S
C1071      C1072   1.408       .  A
C1071      C1076   1.394       .  A
C1071      F1078   1.358       .  S
C1072      C1073   1.408       .  A
C1073      C1074   1.396       .  A
C1073      F1080   1.358       .  S
C1074      C1075   1.409       .  A
C1074      F1079   1.358       .  S
C1075      C1076   1.407       .  A
C1076      F1077   1.358       .  S
C1081      C1082   1.410       .  A
C1081      C1086   1.400   1_655  A
C1081      F1088   1.358       .  S
C1082      C1083   1.409       .  A
C1083      C1084   1.403   1_655  A
C1083      F1090   1.358       .  S
C1084      C1085   1.409       .  A
C1084      F1089   1.357       .  S
C1085      C1086   1.410       .  A
C1086      F1087   1.358       .  S
C1091      C1092   1.409       .  A
C1091      C1096   1.402   1_655  A
C1091      F1098   1.358       .  S
C1092      C1093   1.410       .  A
C1093      C1094   1.403   1_655  A
C1093      F1100   1.358       .  S
C1094      C1095   1.410       .  A
C1094      F1099   1.358       .  S
C1095      C1096   1.410       .  A
C1096      F1097   1.358       .  S
C1101      C1102   1.408       .  A
C1101      C1106   1.394       .  A
C1101      F1108   1.358       .  S
C1102      C1103   1.408       .  A
C1103      C1104   1.395       .  A
C1103      F1110   1.358       .  S
C1104      C1105   1.408       .  A
C1104      F1109   1.358       .  S
C1105      C1106   1.408       .  A
C1106      F1107   1.358       .  S
C1111      C1112   1.410       .  A
C1111      C1116   1.402   1_655  A
C1111      F1118   1.358       .  S
C1112      C1113   1.410       .  A
C1113      C1114   1.403   1_655  A
C1113      F1120   1.358       .  S
C1114      C1115   1.409       .  A
C1114      F1119   1.358       .  S
C1115      C1116   1.410       .  A
C1116      F1117   1.358       .  S
C1121      C1122   1.406       .  A
C1121      C1126   1.395       .  A
C1121      F1128   1.358       .  S
C1122      C1123   1.406       .  A
C1123      C1124   1.394       .  A
C1123      F1130   1.358       .  S
C1124      C1125   1.407       .  A
C1124      F1129   1.358       .  S
C1125      C1126   1.408       .  A
C1126      F1127   1.358       .  S
C1131      C1132   1.410       .  A
C1131      C1136   1.402   1_655  A
C1131      F1138   1.357       .  S
C1132      C1133   1.411       .  A
C1133      C1134   1.403   1_655  A
C1133      F1140   1.358       .  S
C1134      C1135   1.409       .  A
C1134      F1139   1.358       .  S
C1135      C1136   1.409       .  A
C1136      F1137   1.358       .  S
C1141      C1142   1.408       .  A
C1141      C1146   1.394       .  A
C1141      F1148   1.358       .  S
C1142      C1143   1.407       .  A
C1143      C1144   1.396       .  A
C1143      F1150   1.358       .  S
C1144      C1145   1.407       .  A
C1144      F1149   1.358       .  S
C1145      C1146   1.406       .  A
C1146      F1147   1.358       .  S
C1151      C1152   1.406       .  A
C1151      C1156   1.392       .  A
C1151      F1158   1.358       .  S
C1152      C1153   1.408       .  A
C1153      C1154   1.396       .  A
C1153      F1160   1.358       .  S
C1154      C1155   1.408       .  A
C1154      F1159   1.358       .  S
C1155      C1156   1.408       .  A
C1156      F1157   1.358       .  S
C1161      C1162   1.410       .  A
C1161      C1166   1.401       .  A
C1161      F1168   1.358       .  S
C1162      C1163   1.411       .  A
C1163      C1164   1.404       .  A
C1163      F1170   1.358       .  S
C1164      C1165   1.410       .  A
C1164      F1169   1.358       .  S
C1165      C1166   1.410       .  A
C1166      F1167   1.358       .  S
C1171      C1172   1.409       .  A
C1171      C1176   1.406       .  A
C1171      F1178   1.358       .  S
C1172      C1173   1.410       .  A
C1173      C1174   1.403       .  A
C1173      F1180   1.358       .  S
C1174      C1175   1.411       .  A
C1174      F1179   1.358       .  S
C1175      C1176   1.411       .  A
C1176      F1177   1.357       .  S
C1181      C1182   1.405       .  A
C1181      C1186   1.394       .  A
C1181      F1188   1.358   1_565  S
C1182      C1183   1.406       .  A
C1183      C1184   1.395       .  A
C1183      F1190   1.358       .  S
C1184      C1185   1.408       .  A
C1184      F1189   1.358       .  S
C1185      C1186   1.407       .  A
C1186      F1187   1.358   1_565  S
C1191      C1192   1.410       .  A
C1191      C1196   1.405       .  A
C1191      F1198   1.358       .  S
C1192      C1193   1.411       .  A
C1193      C1194   1.403       .  A
C1193      F1200   1.358       .  S
C1194      C1195   1.410       .  A
C1194      F1199   1.358       .  S
C1195      C1196   1.410       .  A
C1196      F1197   1.358       .  S
C1201      C1202   1.409       .  A
C1201      C1206   1.394       .  A
C1201      F1208   1.358   1_565  S
C1202      C1203   1.408       .  A
C1203      C1204   1.396       .  A
C1203      F1210   1.358       .  S
C1204      C1205   1.407       .  A
C1204      F1209   1.358       .  S
C1205      C1206   1.407       .  A
C1206      F1207   1.358   1_565  S
C1211      C1212   1.409       .  A
C1211      C1216   1.402       .  A
C1211      F1218   1.358       .  S
C1212      C1213   1.410       .  A
C1213      C1214   1.403       .  A
C1213      F1220   1.358       .  S
C1214      C1215   1.410       .  A
C1214      F1219   1.358       .  S
C1215      C1216   1.411       .  A
C1216      F1217   1.358       .  S
C1221      C1222   1.406       .  A
C1221      C1226   1.391       .  A
C1221      F1228   1.358       .  S
C1222      C1223   1.408       .  A
C1223      C1224   1.398       .  A
C1223      F1230   1.358   1_565  S
C1224      C1225   1.408       .  A
C1224      F1229   1.358   1_565  S
C1225      C1226   1.406       .  A
C1226      F1227   1.358       .  S
C1231      C1232   1.407       .  A
C1231      C1236   1.393       .  A
C1231      F1238   1.358       .  S
C1232      C1233   1.408       .  A
C1233      C1234   1.395       .  A
C1233      F1240   1.358   1_565  S
C1234      C1235   1.406       .  A
C1234      F1239   1.358   1_565  S
C1235      C1236   1.406       .  A
C1236      F1237   1.358       .  S
C1241      C1242   1.410       .  A
C1241      C1246   1.403       .  A
C1241      F1248   1.358       .  S
C1242      C1243   1.410       .  A
C1243      C1244   1.403       .  A
C1243      F1250   1.358       .  S
C1244      C1245   1.410       .  A
C1244      F1249   1.358       .  S
C1245      C1246   1.409       .  A
C1246      F1247   1.358       .  S
C1251      C1252   1.410       .  A
C1251      C1256   1.403       .  A
C1251      F1258   1.358       .  S
C1252      C1253   1.411       .  A
C1253      C1254   1.405       .  A
C1253      F1260   1.357       .  S
C1254      C1255   1.409       .  A
C1254      F1259   1.358       .  S
C1255      C1256   1.412       .  A
C1256      F1257   1.358       .  S
C1261      C1262   1.406       .  A
C1261      C1266   1.397       .  A
C1261      F1268   1.358       .  S
C1262      C1263   1.407       .  A
C1263      C1264   1.392       .  A
C1263      F1270   1.358       .  S
C1264      C1265   1.406       .  A
C1264      F1269   1.358       .  S
C1265      C1266   1.409       .  A
C1266      F1267   1.358       .  S
C1271      C1272   1.411       .  A
C1271      C1276   1.404       .  A
C1271      F1278   1.358       .  S
C1272      C1273   1.410       .  A
C1273      C1274   1.404       .  A
C1273      F1280   1.358       .  S
C1274      C1275   1.410       .  A
C1274      F1279   1.358       .  S
C1275      C1276   1.411       .  A
C1276      F1277   1.358       .  S
C1281      C1282   1.406       .  A
C1281      C1286   1.393       .  A
C1281      F1288   1.358       .  S
C1282      C1283   1.407       .  A
C1283      C1284   1.394       .  A
C1283      F1290   1.358       .  S
C1284      C1285   1.408       .  A
C1284      F1289   1.358       .  S
C1285      C1286   1.406       .  A
C1286      F1287   1.358       .  S
C1291      C1292   1.410       .  A
C1291      C1296   1.402       .  A
C1291      F1298   1.358       .  S
C1292      C1293   1.409       .  A
C1293      C1294   1.403       .  A
C1293      F1300   1.358       .  S
C1294      C1295   1.410       .  A
C1294      F1299   1.358       .  S
C1295      C1296   1.410       .  A
C1296      F1297   1.358       .  S
C1301      C1302   1.406       .  A
C1301      C1306   1.394       .  A
C1301      F1308   1.358       .  S
C1302      C1303   1.408       .  A
C1303      C1304   1.396       .  A
C1303      F1310   1.358       .  S
C1304      C1305   1.407       .  A
C1304      F1309   1.358       .  S
C1305      C1306   1.408       .  A
C1306      F1307   1.358       .  S
C1311      C1312   1.406       .  A
C1311      C1316   1.393       .  A
C1311      F1318   1.358       .  S
C1312      C1313   1.406       .  A
C1313      C1314   1.395       .  A
C1313      F1320   1.358       .  S
C1314      C1315   1.407       .  A
C1314      F1319   1.358       .  S
C1315      C1316   1.408       .  A
C1316      F1317   1.358       .  S
