geometry optimzed in LAMMPS
_audit_creation_date              2020-11-30 
_audit_creation_method            'lammps2cif' 
_symmetry_space_group_name_H-M    'P1' 
_symmetry_Int_Tables_number       1 
_symmetry_cell_setting            triclinic 
loop_ 
_symmetry_equiv_pos_as_xyz 
  x,y,z 
_cell_length_a                    70.90208784 
_cell_length_b                    71.05639759819434 
_cell_length_c                    70.93002306878043 
_cell_angle_alpha                 89.85146853674391 
_cell_angle_beta                  89.89121898497332 
_cell_angle_gamma                 90.0726161353769 
loop_ 
_atom_site_label 
_atom_site_type_symbol 
_atom_site_fract_x 
_atom_site_fract_y 
_atom_site_fract_z 
_atom_site_charge 
O1          O  0.28567736  0.74312315  0.48056383    -0.78400
C2          C  0.29695762  0.71231889  0.53212446     0.82600
O3          O  0.26768414  0.67382627  0.48268856    -0.79600
O4          O  0.23684267  0.70025263  0.54035014    -0.81000
O5          O  0.22690119  0.75257091  0.50929895    -0.80800
O6          O  0.25699943  0.75432144  0.47381983    -0.79500
Zn7        Zn  0.28111491  0.71759617  0.49222993     1.55700
O8          O  0.24339135  0.74575312  0.53530724    -0.80900
Cd9        Cd  0.23948752  0.73575076  0.48852473     1.59700
Cd10       Cd  0.24633906  0.69039108  0.49451227     1.59600
O11         O  0.21924562  0.72306078  0.47089550    -0.80800
O12         O  0.25549759  0.71608396  0.50074084    -1.91400
Cd13       Cd  0.25476876  0.71982900  0.52849275     1.59900
O14         O  0.22601682  0.69256710  0.47388079    -0.80800
O15         O  0.28117864  0.71562234  0.54008342    -0.79500
C16         C  0.28139648  0.67985187  0.47262721     0.83100
C17         C  0.27495810  0.75579663  0.47366080     0.82700
O18         O  0.29891568  0.71299782  0.51423852    -0.78400
C19         C  0.23130672  0.75570640  0.52649160     0.83500
O20         O  0.28637058  0.69709710  0.47323107    -0.78500
C21         C  0.21631292  0.70579570  0.46661880     0.83700
C22         C  0.22958547  0.68499982  0.53438300     0.84000
O23         O  0.23271255  0.67864959  0.51783241    -0.80900
O24         O  0.79681529  0.71300829  0.98359705    -0.78400
C25         C  0.77413927  0.75346026  0.02783954     0.82600
O26         O  0.76501380  0.67479838  0.02367000    -0.79600
O27         O  0.71926439  0.71940992  0.03200951    -0.81000
O28         O  0.74024230  0.74571277  0.96852954    -0.80800
O29         O  0.77699841  0.71571852  0.95942297    -0.79500
Zn30       Zn  0.78056590  0.71669139  0.00703330     1.55700
O31         O  0.72514706  0.75094215  0.99557711    -0.80900
Cd32       Cd  0.75152791  0.71914283  0.97318463     1.59700
Cd33       Cd  0.74555052  0.68840590  0.00618948     1.59600
O34         O  0.73398950  0.69885276  0.96204284    -0.80800
O35         O  0.75438073  0.71433914  0.00049528    -1.91400
Cd36       Cd  0.73877240  0.73297840  0.01445941     1.59900
O37         O  0.73762871  0.67435714  0.98160007    -0.80800
O38         O  0.75641281  0.75079180  0.02945333    -0.79500
C39         C  0.78007165  0.68107558  0.03131308     0.83100
C40         C  0.79346788  0.71272894  0.96589509     0.82700
O41         O  0.78482384  0.74226785  0.01869559    -0.78400
C42         C  0.72897081  0.75549912  0.97855754     0.83500
O43         O  0.78730918  0.69683508  0.02653889    -0.78500
C44         C  0.73139353  0.68158803  0.96630697     0.83700
C45         C  0.71359232  0.70232717  0.03241265     0.84000
O46         O  0.72133364  0.68974308  0.02228131    -0.80900
O47         O  0.20444624  0.52437144  0.20102969    -0.78400
C48         C  0.24716307  0.48165997  0.21988413     0.82600
O49         O  0.16447923  0.49073279  0.22689713    -0.79600
O50         O  0.21226857  0.46974340  0.27130625    -0.81000
O51         O  0.23844095  0.53466804  0.25821524    -0.80800
O52         O  0.20791497  0.54752872  0.22194314    -0.79500
Zn53       Zn  0.20878488  0.50029610  0.21552094     1.55700
O54         O  0.23914596  0.50776414  0.27424903    -0.80900
Cd55       Cd  0.21182430  0.53210914  0.24653701     1.59700
Cd56       Cd  0.18037109  0.49932941  0.25010058     1.59600
O57         O  0.19291514  0.54200337  0.26641366    -0.80800
O58         O  0.20634548  0.50540024  0.24172688    -1.91400
Cd59       Cd  0.22505735  0.49058337  0.25580526     1.59900
O60         O  0.16887201  0.52164929  0.26547437    -0.80800
O61         O  0.24532304  0.48022535  0.23770115    -0.79500
C62         C  0.17055949  0.48222731  0.21225083     0.83100
C63         C  0.20421828  0.54178754  0.20532101     0.82700
O64         O  0.23451898  0.48921313  0.20955613    -0.78400
C65         C  0.24527913  0.52432775  0.27125919     0.83500
O66         O  0.18802835  0.48260478  0.20793906    -0.78500
C67         C  0.17651970  0.53672285  0.27164476     0.83700
C68         C  0.19502673  0.46701450  0.27558110     0.84000
O69         O  0.18165118  0.47685197  0.26870798    -0.80900
O70         O  0.52040729  0.21344891  0.20556496    -0.78400
C71         C  0.47357030  0.23178723  0.24577730     0.82600
O72         O  0.47798713  0.24000575  0.16759637    -0.79600
O73         O  0.46870576  0.28816891  0.21380548    -0.81000
O74         O  0.53441899  0.27054907  0.23486604    -0.80800
O75         O  0.54293111  0.23502743  0.20186779    -0.79500
Zn76       Zn  0.49645857  0.22777183  0.21020742     1.55700
O77         O  0.50606588  0.27960729  0.24554827    -0.80900
Cd78       Cd  0.52813781  0.25953492  0.20830229     1.59700
Cd79       Cd  0.49253782  0.26158546  0.18089407     1.59600
O80         O  0.53514121  0.27900698  0.18760453    -0.80800
O81         O  0.50078213  0.25415640  0.20665575    -1.91400
Cd82       Cd  0.48658698  0.26809994  0.22642835     1.59900
O83         O  0.51404333  0.27338727  0.16500177    -0.80800
O84         O  0.47058912  0.24916831  0.24230778    -0.79500
C85         C  0.47234869  0.22442782  0.17459057     0.83100
C86         C  0.53725749  0.21797929  0.20120149     0.82700
O87         O  0.48510543  0.22224713  0.23583082    -0.78400
C88         C  0.52400506  0.27841350  0.24730641     0.83500
O89         O  0.47791066  0.21873608  0.19070722    -0.78500
C90         C  0.52884388  0.28164931  0.17094894     0.83700
C91         C  0.46553280  0.29203644  0.19645243     0.84000
O92         O  0.47381806  0.28323524  0.18325721    -0.80900
O93         O  0.28801899  0.21545006  0.48184753    -0.78400
C94         C  0.26794021  0.25520263  0.52827565     0.82600
O95         O  0.25957142  0.17729380  0.52201049    -0.79600
O96         O  0.21189367  0.22062957  0.53399488    -0.81000
O97         O  0.22933256  0.24705324  0.47020240    -0.80800
O98         O  0.26715222  0.21713087  0.45848555    -0.79500
Zn99       Zn  0.27251352  0.21989265  0.50532645     1.55700
O100        O  0.21811823  0.25364349  0.49900042    -0.80900
Cd101      Cd  0.24194606  0.22087214  0.47354234     1.59700
Cd102      Cd  0.23806911  0.19031948  0.50670103     1.59600
O103        O  0.22418802  0.20029633  0.46298685    -0.80800
O104        O  0.24605298  0.21649049  0.50076120    -1.91400
Cd105      Cd  0.23175807  0.23472226  0.51674281     1.59900
O106        O  0.22936791  0.17606776  0.48235616    -0.80800
O107        O  0.25064892  0.25155107  0.53193105    -0.79500
C108        C  0.27489852  0.18428460  0.52840005     0.83100
C109        C  0.28390621  0.21430158  0.46442851     0.82700
O110        O  0.27760431  0.24524549  0.51687343    -0.78400
C111        C  0.21965601  0.25731731  0.48142277     0.83500
O112        O  0.28078587  0.20054652  0.52373957    -0.78500
C113        C  0.22257183  0.18287397  0.46709591     0.83700
C114        C  0.20666089  0.20336409  0.53446116     0.84000
O115        O  0.21473820  0.19094777  0.52432530    -0.80900
O116        O  0.73571124  0.51560713  0.21550603    -0.78400
C117        C  0.69967874  0.46478220  0.20960250     0.82600
O118        O  0.66646440  0.52292932  0.23098881    -0.79600
O119        O  0.68786250  0.46650799  0.27143047    -0.81000
O120        O  0.74425269  0.49620528  0.27092457    -0.80800
O121        O  0.73964125  0.53177684  0.24199093    -0.79500
Zn122      Zn  0.70927670  0.50530343  0.21988620     1.55700
O123        O  0.73440583  0.46786264  0.26127004    -0.80900
Cd124      Cd  0.72458049  0.51511017  0.26042721     1.59700
Cd125      Cd  0.67961242  0.50979002  0.25399776     1.59600
O126        O  0.71294232  0.53183823  0.28159699    -0.80800
O127        O  0.70507694  0.50109585  0.24626579    -1.91400
Cd128      Cd  0.70749596  0.47380634  0.25114016     1.59900
O129        O  0.68235566  0.53038500  0.27445853    -0.80800
O130        O  0.70088966  0.45903544  0.22663463    -0.79500
C131        C  0.67412546  0.52922346  0.21586896     0.83100
C132        C  0.74478253  0.52766334  0.22530041     0.82700
O133        O  0.70354295  0.48172595  0.20505297    -0.78400
C134        C  0.74656465  0.47847550  0.26922930     0.83500
O135        O  0.69068731  0.52450018  0.21077132    -0.78500
C136        C  0.69585419  0.53672082  0.28447524     0.83700
C137        C  0.67155633  0.47289862  0.27555286     0.84000
O138        O  0.66507467  0.48801641  0.26811010    -0.80900
O139        O  0.01248124  0.28611674  0.25591872    -0.78400
C140        C  0.96304220  0.29951215  0.28797117     0.82600
O141        O  0.01754871  0.27472742  0.32552705    -0.79600
O142        O  0.95785816  0.24101099  0.30399746    -0.81000
O143        O  0.98622451  0.22517005  0.25600168    -0.80800
O144        O  0.01912337  0.25671669  0.24698859    -0.79500
Zn145      Zn  0.00284648  0.28431783  0.28220576     1.55700
O146        O  0.96126723  0.24401027  0.25797008    -0.80900
Cd147      Cd  0.00714834  0.24093669  0.26884260     1.59700
Cd148      Cd  0.00320557  0.25235816  0.31289083     1.59600
O149        O  0.02555553  0.22225917  0.28255759    -0.80800
O150        O  0.99570853  0.25892465  0.28681727    -1.91400
Cd151      Cd  0.96809471  0.25751294  0.28293233     1.59900
O152        O  0.02273038  0.23078477  0.31252386    -0.80800
O153        O  0.95530452  0.28349663  0.28575633    -0.79500
C154        C  0.02617187  0.28824802  0.31724265     0.83100
C155        C  0.01869934  0.27444455  0.24379900     0.82700
O156        O  0.98083290  0.30172998  0.28666670    -0.78400
C157        C  0.96966737  0.22984882  0.25082266     0.83500
O158        O  0.02302969  0.29244854  0.30008748    -0.78500
C159        C  0.02981514  0.22015316  0.29995426     0.83700
C160        C  0.96371720  0.23640590  0.32028850     0.84000
O161        O  0.97980638  0.24129643  0.32677461    -0.80900
O162        O  0.79299723  0.02534554  0.28866785    -0.78400
C163        C  0.74750530  0.98255963  0.27121549     0.82600
O164        O  0.82751375  0.98460321  0.26101336    -0.79600
O165        O  0.77918561  0.97534390  0.21265368    -0.81000
O166        O  0.76045956  0.04060349  0.23284443    -0.80800
O167        O  0.79287703  0.04844206  0.26756377    -0.79500
Zn168      Zn  0.78560633  0.00199255  0.27421069     1.55700
O169        O  0.74959339  0.01293998  0.22235816    -0.80900
Cd170      Cd  0.78645208  0.03354875  0.24336991     1.59700
Cd171      Cd  0.81326344  0.99760031  0.23925358     1.59600
O172        O  0.80601753  0.04095336  0.22339249    -0.80800
O173        O  0.78806797  0.00616451  0.24774557    -1.91400
Cd174      Cd  0.76753327  0.99271930  0.23408221     1.59900
O175        O  0.82835620  0.01896663  0.22585139    -0.80800
O176        O  0.75059912  0.97846742  0.25391536    -0.79500
C177        C  0.82094652  0.97844616  0.27659469     0.83100
C178        C  0.79570019  0.04254159  0.28429242     0.82700
O179        O  0.75894693  0.99319440  0.28011140    -0.78400
C180        C  0.74827803  0.03080943  0.22405226     0.83500
O181        O  0.80448622  0.98261267  0.28249775    -0.78500
C182        C  0.82211475  0.03436165  0.21899949     0.83700
C183        C  0.79641289  0.97120672  0.20896774     0.84000
O184        O  0.80993037  0.97773958  0.21873095    -0.80900
O185        O  0.71058023  0.76944267  0.48658219    -0.78400
C186        C  0.70768785  0.80312857  0.53912365     0.82600
O187        O  0.72854364  0.83762816  0.47928046    -0.79600
O188        O  0.76671375  0.81700373  0.53692622    -0.81000
O189        O  0.77275168  0.76313706  0.50269093    -0.80800
O190        O  0.73717331  0.76372343  0.47101822    -0.79500
Zn191      Zn  0.71627150  0.79541581  0.49761181     1.55700
O192        O  0.76405023  0.76967222  0.53194295    -0.80900
Cd193      Cd  0.75669976  0.78059612  0.48523632     1.59700
Cd194      Cd  0.75040869  0.82495542  0.49397270     1.59600
O195        O  0.77477403  0.79433698  0.46624255    -0.80800
O196        O  0.74300305  0.79892709  0.50123382    -1.91400
Cd197      Cd  0.74921950  0.79523838  0.52828423     1.59900
O198        O  0.77287392  0.82414340  0.47554592    -0.80800
O199        O  0.72462054  0.79970970  0.54433878    -0.79500
C200        C  0.71285069  0.83081809  0.47373016     0.83100
C201        C  0.71995654  0.75973504  0.47465027     0.82700
O202        O  0.70249191  0.80130066  0.52201468    -0.78400
C203        C  0.77367896  0.75972566  0.52034326     0.83500
O204        O  0.70698793  0.81466790  0.47894586    -0.78500
C205        C  0.78013347  0.81149010  0.46515972     0.83700
C206        C  0.76787703  0.83423362  0.53190964     0.84000
O207        O  0.76000097  0.84034781  0.51693245    -0.80900
C208        C  0.90746294  0.85255393  0.35249966     0.86500
C209        C  0.92088859  0.86383421  0.36555683    -0.53700
C210        C  0.91200179  0.87642484  0.37731725     0.09500
C211        C  0.89041788  0.87705295  0.37430817     0.20400
C212        C  0.89275751  0.84393024  0.36576939    -0.54400
C213        C  0.88359202  0.85651725  0.37707583     0.09600
C214        C  0.89723633  0.86840304  0.34196024    -0.54000
C215        C  0.88824992  0.88114899  0.35302871     0.10100
H216        H  0.93612235  0.86261529  0.36514663     0.14700
H217        H  0.88303680  0.88731660  0.38345580     0.00400
H218        H  0.88970572  0.82894816  0.36603629     0.15000
H219        H  0.89796840  0.87017521  0.32677699     0.14700
C220        C  0.84688636  0.15262756  0.41072032     0.86500
C221        C  0.83657263  0.13964745  0.39676745    -0.53700
C222        C  0.84802599  0.12875313  0.38568195     0.09500
C223        C  0.86921435  0.13158065  0.39000649     0.20400
C224        C  0.85987050  0.13919085  0.42219819    -0.54400
C225        C  0.87137239  0.12772677  0.41143537     0.09600
C226        C  0.86147688  0.16348437  0.39912222    -0.54000
C227        C  0.87281029  0.15287222  0.38811507     0.10100
H228        H  0.82130083  0.13913880  0.39589949     0.14700
H229        H  0.87841621  0.12305742  0.38075765     0.00400
H230        H  0.86104338  0.13942385  0.43739684     0.15000
H231        H  0.86340851  0.17862537  0.40018357     0.14700
C232        C  0.85118586  0.92354544  0.65187882     0.86500
C233        C  0.86421496  0.90873515  0.66095405    -0.53700
C234        C  0.87476286  0.89833529  0.64849323     0.09500
C235        C  0.87144959  0.90421367  0.62761745     0.20400
C236        C  0.86441021  0.93565090  0.63924575    -0.54400
C237        C  0.87543915  0.92566291  0.62684607     0.09600
C238        C  0.83974627  0.91281148  0.63713329    -0.54000
C239        C  0.84988895  0.90280167  0.62444996     0.10100
H240        H  0.86492811  0.90664727  0.67610493     0.14700
H241        H  0.87980397  0.89588153  0.61739448     0.00400
H242        H  0.86427112  0.95085454  0.63881311     0.15000
H243        H  0.82449222  0.91384152  0.63610702     0.14700
C244        C  0.14508850  0.09510566  0.33837540     0.86500
C245        C  0.13175372  0.08224851  0.35010323    -0.53700
C246        C  0.12119468  0.09123865  0.36362061     0.09500
C247        C  0.12513004  0.11260930  0.36398551     0.20400
C248        C  0.13233748  0.11023135  0.33024050    -0.54400
C249        C  0.12184256  0.11950527  0.34327971     0.09600
C250        C  0.15673443  0.10518773  0.35369183    -0.54000
C251        C  0.14664917  0.11409892  0.36749941     0.10100
H252        H  0.13122537  0.06715808  0.34855822     0.14700
H253        H  0.11670202  0.11972894  0.37480481     0.00400
H254        H  0.13152905  0.11331078  0.31524762     0.15000
H255        H  0.17202269  0.10500806  0.35368766     0.14700
C256        C  0.07869918  0.15315315  0.64498379     0.86500
C257        C  0.09238378  0.16386749  0.63184624    -0.53700
C258        C  0.10249903  0.15288918  0.61973597     0.09500
C259        C  0.09813470  0.13165459  0.62201861     0.20400
C260        C  0.06657356  0.14094912  0.63197339    -0.54400
C261        C  0.07645498  0.12978199  0.61969025     0.09600
C262        C  0.09186095  0.13905724  0.65494214    -0.54000
C263        C  0.10163647  0.12742601  0.64314251     0.10100
H264        H  0.09484917  0.17887807  0.63268999     0.14700
H265        H  0.10653992  0.12282187  0.61228841     0.00400
H266        H  0.05127657  0.14096330  0.63270915     0.15000
H267        H  0.09316059  0.13802909  0.67015885     0.14700
C268        C  0.15413160  0.86040885  0.58624672     0.86500
C269        C  0.14412018  0.87483256  0.57298966    -0.53700
C270        C  0.13216819  0.88718885  0.58192899     0.09500
C271        C  0.13229641  0.88472694  0.60351347     0.20400
C272        C  0.16465004  0.87341704  0.59980505    -0.54400
C273        C  0.15348507  0.88560628  0.60943356     0.09600
C274        C  0.13828044  0.85170813  0.59820199    -0.54000
C275        C  0.12616014  0.86410464  0.60662757     0.10100
H276        H  0.14670456  0.87611083  0.55803288     0.14700
H277        H  0.12316069  0.89521776  0.61029328     0.00400
H278        H  0.17977292  0.87271293  0.60211389     0.15000
H279        H  0.13691025  0.83657818  0.59983425     0.14700
O280        O  0.01801893  0.01776107  0.45246400    -0.78400
C281        C  0.98334754  0.96516921  0.46227722     0.82600
O282        O  0.96346561  0.03400617  0.49140621    -0.79600
O283        O  0.97545909  0.97431958  0.52241055    -0.81000
O284        O  0.04214177  0.98859840  0.51026382    -0.80800
O285        O  0.04030329  0.01957752  0.47407853    -0.79500
Zn286      Zn  0.99475122  0.00694603  0.46646930     1.55700
O287        O  0.02095787  0.96556075  0.51318320    -0.80900
Cd288      Cd  0.02678693  0.01060957  0.49855302     1.59700
Cd289      Cd  0.98214103  0.01950256  0.50899211     1.59600
O290        O  0.02753689  0.03219471  0.51807797    -0.80800
O291        O  0.99986293  0.00361381  0.49351400    -1.91400
Cd292      Cd  0.99633113  0.97691522  0.50185611     1.59900
O293        O  0.99744072  0.03907845  0.52426254    -0.80800
O294        O  0.98749689  0.96117084  0.47928767    -0.79500
C295        C  0.96242892  0.03533909  0.47346819     0.83100
C296        C  0.03487769  0.02212067  0.45715695     0.82700
O297        O  0.98579791  0.98167802  0.45539026    -0.78400
C298        C  0.03758795  0.97203725  0.51551467     0.83500
O299        O  0.97349031  0.02602552  0.46275552    -0.78500
C300        C  0.01504471  0.04180716  0.52670998     0.83700
C301        C  0.96579558  0.98589011  0.53212935     0.84000
O302        O  0.96705361  0.00353726  0.52893231    -0.80900
O303        O  0.71061012  0.30064602  0.48215514    -0.78400
C304        C  0.73574376  0.25963683  0.52441255     0.82600
O305        O  0.73822480  0.34105791  0.51638640    -0.79600
O306        O  0.78815347  0.29571585  0.52930015    -0.81000
O307        O  0.76842097  0.27248672  0.46385309    -0.80800
O308        O  0.72994777  0.30349549  0.45746804    -0.79500
Zn309      Zn  0.72780413  0.29664373  0.50432299     1.55700
O310        O  0.78341964  0.26592337  0.49081671    -0.80900
Cd311      Cd  0.75628676  0.29860826  0.46978540     1.59700
Cd312      Cd  0.76128771  0.32740105  0.50428168     1.59600
O313        O  0.77460423  0.31915944  0.45980240    -0.80800
O314        O  0.75368840  0.30125657  0.49743229    -1.91400
Cd315      Cd  0.76973413  0.28244345  0.51064983     1.59900
O316        O  0.77399977  0.34167922  0.48166848    -0.80800
O317        O  0.75338196  0.26298002  0.52523938    -0.79500
C318        C  0.72379765  0.33368355  0.52435041     0.83100
C319        C  0.71347721  0.30425185  0.46480322     0.82700
O320        O  0.72438658  0.27078581  0.51604251    -0.78400
C321        C  0.77976825  0.26235202  0.47355761     0.83500
O322        O  0.71949522  0.31638745  0.52247949    -0.78500
C323        C  0.77963663  0.33532488  0.46579178     0.83700
C324        C  0.79112659  0.31304562  0.53307204     0.84000
O325        O  0.78211143  0.32615122  0.52472004    -0.80900
O326        O  0.01672129  0.71540743  0.69967027    -0.78400
C327        C  0.97285973  0.73394207  0.74196656     0.82600
O328        O  0.98516092  0.74382726  0.66145614    -0.79600
O329        O  0.96598316  0.79004858  0.71009260    -0.81000
O330        O  0.03005581  0.76948618  0.73673485    -0.80800
O331        O  0.04082648  0.73519372  0.70288195    -0.79500
Zn332      Zn  0.99355422  0.73091799  0.70491086     1.55700
O333        O  0.00274135  0.78445682  0.74150822    -0.80900
Cd334      Cd  0.02620096  0.75986968  0.70951459     1.59700
Cd335      Cd  0.99376348  0.76623501  0.67829986     1.59600
O336        O  0.03607562  0.78102531  0.69260120    -0.80800
O337        O  0.99917893  0.75700094  0.70402749    -1.91400
Cd338      Cd  0.98435109  0.77092340  0.72311416     1.59900
O339        O  0.01701245  0.78042753  0.66767163    -0.80800
O340        O  0.97022700  0.75160966  0.74000093    -0.79500
C341        C  0.97630519  0.72909414  0.66681018     0.83100
C342        C  0.03431790  0.71890055  0.69893244     0.82700
O343        O  0.98252967  0.72449510  0.73015211    -0.78400
C344        C  0.01977271  0.78085039  0.74614395     0.83500
O345        O  0.97569742  0.72438316  0.68414623    -0.78500
C346        C  0.03161522  0.78658891  0.67615303     0.83700
C347        C  0.96318997  0.79417790  0.69274850     0.84000
O348        O  0.97228510  0.78609034  0.67949200    -0.80900
C349        C  0.14659999  0.59344215  0.64976681     0.86500
C350        C  0.13310633  0.60639204  0.66056238    -0.53700
C351        C  0.12112301  0.61668032  0.64953608     0.09500
C352        C  0.12340365  0.61260617  0.62821552     0.20400
C353        C  0.13361963  0.58108664  0.63727890    -0.54400
C354        C  0.12106916  0.59095930  0.62612543     0.09600
C355        C  0.15619160  0.60577562  0.63482183    -0.54000
C356        C  0.14445478  0.61602146  0.62380359     0.10100
H357        H  0.13317655  0.60737387  0.67583598     0.14700
H358        H  0.11374167  0.62119327  0.61950179     0.00400
H359        H  0.13489377  0.56591306  0.63642165     0.15000
H360        H  0.17126473  0.60543787  0.63208358     0.14700
C361        C  0.15401730  0.36204082  0.40942600     0.86500
C362        C  0.16395457  0.37480516  0.39466130    -0.53700
C363        C  0.15200130  0.38400704  0.38256181     0.09500
C364        C  0.13099151  0.38075510  0.38717407     0.20400
C365        C  0.14143628  0.37654087  0.41947707    -0.54400
C366        C  0.12910234  0.38612661  0.40820414     0.09600
C367        C  0.14047296  0.34972650  0.39785264    -0.54000
C368        C  0.12827995  0.35925425  0.38644485     0.10100
H369        H  0.17883325  0.37802566  0.39448350     0.14700
H370        H  0.12133108  0.38858251  0.37773262     0.00400
H371        H  0.14266412  0.37951664  0.43440215     0.15000
H372        H  0.14036289  0.33447116  0.39890947     0.14700
C373        C  0.85043796  0.65315615  0.57951154     0.86500
C374        C  0.86219801  0.63765828  0.56972268    -0.60100
C375        C  0.87359047  0.62698206  0.58135389     0.09500
C376        C  0.87251941  0.63379262  0.60196904     0.20400
C377        C  0.84012072  0.64296206  0.59600663    -0.54400
C378        C  0.85156982  0.63237301  0.60746189     0.09600
C379        C  0.86500902  0.66503990  0.58997364    -0.54000
C380        C  0.87698792  0.65518736  0.60105127     0.10100
H381        H  0.86196747  0.63596922  0.55453997     0.14700
H382        H  0.88097930  0.62571898  0.61199840     0.00400
H383        H  0.82530860  0.64445536  0.59924024     0.15000
H384        H  0.86632707  0.68018552  0.58824370     0.14700
C385        C  0.85649199  0.42506781  0.34206105     0.86500
C386        C  0.87120303  0.43761677  0.35205630    -0.53700
C387        C  0.88299742  0.42823626  0.36414836     0.09500
C388        C  0.87977604  0.40666294  0.36425367     0.20400
C389        C  0.86930997  0.41096974  0.33190858    -0.54400
C390        C  0.88128530  0.40108478  0.34317029     0.09600
C391        C  0.84684755  0.41388834  0.35791854    -0.54000
C392        C  0.85868116  0.40406590  0.36951269     0.10100
H393        H  0.87313026  0.45246544  0.34922223     0.14700
H394        H  0.88959678  0.39886396  0.37357599     0.00400
H395        H  0.86943689  0.40935169  0.31670165     0.15000
H396        H  0.83162931  0.41368139  0.35972352     0.14700
C397        C  0.92095762  0.35659260  0.64296958     0.86500
C398        C  0.90525516  0.34674550  0.63156760    -0.53700
C399        C  0.89443172  0.35836168  0.62074433     0.09500
C400        C  0.90010054  0.37925294  0.62254171     0.20400
C401        C  0.93205302  0.36831442  0.62849941    -0.54400
C402        C  0.92135042  0.38011534  0.61750409     0.09600
C403        C  0.90991847  0.37127218  0.65446137    -0.54000
C404        C  0.89946134  0.38345166  0.64388271     0.10100
H405        H  0.90206290  0.33191908  0.63258301     0.14700
H406        H  0.89087326  0.38844750  0.61400076     0.00400
H407        H  0.94730346  0.36756210  0.62739120     0.15000
H408        H  0.91072794  0.37239100  0.66970613     0.14700
C409        C  0.09111134  0.66093530  0.35163473     0.86500
C410        C  0.07909995  0.65051827  0.36630263    -0.53700
C411        C  0.08887626  0.63864205  0.37788547     0.09500
C412        C  0.11041453  0.63860552  0.37396277     0.20400
C413        C  0.10663709  0.67101006  0.36314926    -0.54400
C414        C  0.11645110  0.65956817  0.37526258     0.09600
C415        C  0.10249677  0.64567144  0.34145346    -0.54000
C416        C  0.11239700  0.63376984  0.35275013     0.10100
H417        H  0.06390128  0.65221260  0.36721926     0.14700
H418        H  0.11849941  0.62909106  0.38336754     0.00400
H419        H  0.11030084  0.68572332  0.36147621     0.15000
H420        H  0.10320065  0.64464718  0.32620595     0.14700
O421        O  0.01696705  0.55161505  0.48251027    -0.78400
C422        C  0.96561608  0.53995100  0.51531437     0.82600
O423        O  0.03547262  0.50590105  0.52937326    -0.79600
O424        O  0.97295109  0.47990542  0.51615128    -0.81000
O425        O  0.98734380  0.49962809  0.45040706    -0.80800
O426        O  0.02086369  0.53245155  0.45794757    -0.79500
Zn427      Zn  0.00672930  0.53476727  0.50331158     1.55700
O428        O  0.96459166  0.49372088  0.47133482    -0.80900
Cd429      Cd  0.00965691  0.50739327  0.46733457     1.59700
Cd430      Cd  0.01942544  0.49094231  0.50944806     1.59600
O431        O  0.02941872  0.48684755  0.46290299    -0.80800
O432        O  0.00304744  0.50897322  0.49466218    -1.91400
Cd433      Cd  0.97585123  0.50199406  0.49725302     1.59900
O434        O  0.03757958  0.47609173  0.49121777    -0.80800
O435        O  0.96053501  0.52403015  0.50878137    -0.79500
C436        C  0.03590185  0.52348113  0.53318211     0.83100
C437        C  0.02250455  0.54851087  0.46569722     0.82700
O438        O  0.98262164  0.54567986  0.51407881    -0.78400
C439        C  0.97088932  0.49369887  0.45442959     0.83500
O440        O  0.02582140  0.53527780  0.52418540    -0.78500
C441        C  0.03929878  0.47607838  0.47324949     0.83700
C442        C  0.98436121  0.46952329  0.52535115     0.84000
O443        O  0.00223669  0.47168909  0.52404672    -0.80900
C444        C  0.64891565  0.36176141  0.07856700     0.86500
C445        C  0.63836544  0.37521321  0.06565333    -0.53700
C446        C  0.62569992  0.38636672  0.07469405     0.09500
C447        C  0.62467758  0.38304183  0.09646005     0.20400
C448        C  0.65759277  0.37446178  0.09393896    -0.54400
C449        C  0.64514276  0.38549574  0.10373805     0.09600
C450        C  0.63345748  0.35094942  0.08943736    -0.54000
C451        C  0.62062463  0.36182619  0.09880937     0.10100
H452        H  0.64060174  0.37579828  0.05050519     0.14700
H453        H  0.61433863  0.39170049  0.10405545     0.00400
H454        H  0.67234426  0.37417767  0.09756373     0.15000
H455        H  0.63282497  0.33569712  0.08983550     0.14700
C456        C  0.58695384  0.66137621  0.14700878     0.86500
C457        C  0.60067587  0.67074408  0.13280904    -0.53700
C458        C  0.61040837  0.65850691  0.12149835     0.09500
C459        C  0.60455966  0.63772841  0.12451365     0.20400
C460        C  0.57393173  0.65021203  0.13350742    -0.54400
C461        C  0.58287462  0.63765318  0.12183231     0.09600
C462        C  0.59879520  0.64642923  0.15714781    -0.54000
C463        C  0.60770353  0.63378391  0.14575514     0.10100
H464        H  0.60189768  0.68579449  0.13076085     0.14700
H465        H  0.61206114  0.62784172  0.11504929     0.00400
H466        H  0.55887017  0.65258606  0.13268220     0.15000
H467        H  0.59961714  0.64562171  0.17242465     0.14700
C468        C  0.41653346  0.35026234  0.85433298     0.86500
C469        C  0.42848400  0.36398790  0.86652593    -0.53700
C470        C  0.41821546  0.37657222  0.87713176     0.09500
C471        C  0.39671352  0.37473585  0.87379976     0.20400
C472        C  0.40241142  0.34136250  0.86816021    -0.54400
C473        C  0.39177702  0.35389705  0.87824454     0.09600
C474        C  0.40489767  0.36400467  0.84239774    -0.54000
C475        C  0.39456060  0.37679330  0.85218601     0.10100
H476        H  0.44372775  0.36467301  0.86611474     0.14700
H477        H  0.38821023  0.38496304  0.88195667     0.00400
H478        H  0.40076130  0.32623011  0.86960249     0.15000
H479        H  0.40546507  0.36421712  0.82710337     0.14700
C480        C  0.34116473  0.65566650  0.91090903     0.86500
C481        C  0.33220040  0.64330504  0.89576506    -0.53700
C482        C  0.34398799  0.63041038  0.88761310     0.09500
C483        C  0.36455286  0.63192228  0.89496300     0.20400
C484        C  0.35091703  0.64192387  0.92472623    -0.54400
C485        C  0.36305901  0.62944845  0.91654469     0.09600
C486        C  0.35805180  0.66503238  0.90092888    -0.54000
C487        C  0.37003143  0.65286045  0.89205012     0.10100
H488        H  0.31750349  0.64480434  0.89177043     0.14700
H489        H  0.37462512  0.62183692  0.88867705     0.00400
H490        H  0.34943345  0.64267229  0.93988855     0.15000
H491        H  0.36025543  0.68015255  0.90055408     0.14700
C492        C  0.64834716  0.59178300  0.84473651     0.86500
C493        C  0.63443901  0.58117012  0.85769057    -0.53700
C494        C  0.62408542  0.59209440  0.86990378     0.09500
C495        C  0.62962449  0.61309556  0.86839978     0.20400
C496        C  0.63650726  0.60759917  0.83535454    -0.54400
C497        C  0.62613245  0.61835822  0.84761265     0.09600
C498        C  0.66085038  0.60291144  0.85818640    -0.54000
C499        C  0.65146694  0.61356070  0.87090872     0.10100
H500        H  0.63344105  0.56594607  0.85744918     0.14700
H501        H  0.62163792  0.62243509  0.87770660     0.00400
H502        H  0.63675775  0.61103588  0.82053486     0.15000
H503        H  0.67616186  0.60213862  0.85801366     0.14700
C504        C  0.35927880  0.42341201  0.15353041     0.86500
C505        C  0.37319319  0.40912378  0.16223041    -0.53700
C506        C  0.38284916  0.39844207  0.14934921     0.09500
C507        C  0.37877109  0.40411348  0.12861835     0.20400
C508        C  0.37276938  0.43529456  0.14126205    -0.54400
C509        C  0.38265058  0.42554893  0.12794543     0.09600
C510        C  0.34739697  0.41175060  0.13984565    -0.54000
C511        C  0.35713132  0.40199966  0.12648170     0.10100
H512        H  0.37611411  0.40791083  0.17714875     0.14700
H513        H  0.38711252  0.39622404  0.11804283     0.00400
H514        H  0.37509403  0.45019665  0.14351118     0.15000
H515        H  0.33211047  0.41124902  0.14082437     0.14700
O516        O  0.47667065  0.55043871  0.97966480    -0.78400
C517        C  0.51691242  0.55188627  0.02784790     0.82600
O518        O  0.53137109  0.51082888  0.96272267    -0.79600
O519        O  0.52875297  0.49187133  0.02591435    -0.81000
O520        O  0.46040751  0.49565420  0.01860113    -0.80800
O521        O  0.45558212  0.52740391  0.98274247    -0.79500
Zn522      Zn  0.50180542  0.53919112  0.98895350     1.55700
O523        O  0.48421929  0.49868765  0.03903104    -0.80900
Cd524      Cd  0.47141096  0.50512515  0.99303365     1.59700
Cd525      Cd  0.51420109  0.49489550  0.98057000     1.59600
O526        O  0.46842078  0.48343300  0.97354747    -0.80800
O527        O  0.49846968  0.51272373  0.99620427    -1.91400
Cd528      Cd  0.50619051  0.51008523  0.02324757     1.59900
O529        O  0.49758648  0.47634038  0.96445003    -0.80800
O530        O  0.51499142  0.53543532  0.03480436    -0.79500
C531        C  0.53195525  0.52850927  0.95944082     0.83100
C532        C  0.45980770  0.54421109  0.97799150     0.82700
O533        O  0.51234615  0.55537637  0.01075832    -0.78400
C534        C  0.46739274  0.49368747  0.03506842     0.83500
O535        O  0.52123368  0.54017490  0.96795597    -0.78500
C536        C  0.47977536  0.47361992  0.96366612     0.83700
C537        C  0.53632995  0.47973423  0.01514642     0.84000
O538        O  0.53153589  0.47850127  0.99785293    -0.80900
O539        O  0.29389745  0.48640873  0.70848346    -0.78400
C540        C  0.25152700  0.53007443  0.72502637     0.82600
O541        O  0.32964866  0.53006547  0.73965412    -0.79600
O542        O  0.27953443  0.53831663  0.78208972    -0.81000
O543        O  0.26134527  0.47156118  0.76544263    -0.80800
O544        O  0.29354818  0.46342693  0.72990215    -0.79500
Zn545      Zn  0.28936235  0.51002526  0.72318869     1.55700
O546        O  0.25265220  0.49926021  0.77745166    -0.80900
Cd547      Cd  0.28746969  0.47822890  0.75426730     1.59700
Cd548      Cd  0.31531458  0.51379617  0.75996003     1.59600
O549        O  0.30709574  0.46958282  0.77342532    -0.80800
O550        O  0.29037363  0.50552888  0.74989896    -1.91400
Cd551      Cd  0.26924630  0.51853010  0.76297571     1.59900
O552        O  0.33042199  0.49046133  0.77052832    -0.80800
O553        O  0.25142449  0.53030506  0.74301574    -0.79500
C554        C  0.32474094  0.53435704  0.72284708     0.83100
C555        C  0.29593674  0.46921543  0.71305180     0.82700
O556        O  0.26496980  0.52243817  0.71589685    -0.78400
C557        C  0.25039189  0.48156234  0.77556121     0.83500
O558        O  0.30998271  0.52732543  0.71561511    -0.78500
C559        C  0.32402479  0.47463588  0.77645827     0.83700
C560        C  0.29616390  0.54074678  0.78855746     0.84000
O561        O  0.31043907  0.53188051  0.78218395    -0.80900
C562        C  0.65365851  0.64857078  0.41206713     0.86500
C563        C  0.64341198  0.63462628  0.42540433    -0.53700
C564        C  0.63108823  0.62258922  0.41677671     0.09500
C565        C  0.62990992  0.62569300  0.39521061     0.20400
C566        C  0.66264072  0.63607070  0.39693526    -0.54400
C567        C  0.65052875  0.62407384  0.38797205     0.09600
C568        C  0.63709733  0.65842009  0.40206680    -0.54000
C569        C  0.62465428  0.64675213  0.39307973     0.10100
H570        H  0.64419024  0.63504055  0.44055927     0.14700
H571        H  0.61996303  0.61598632  0.38810814     0.00400
H572        H  0.67755328  0.63676462  0.39349632     0.15000
H573        H  0.63524380  0.67359224  0.40228495     0.14700
C574        C  0.64861093  0.42388475  0.64902668     0.86500
C575        C  0.63452664  0.43638675  0.63805680    -0.53700
C576        C  0.62357669  0.42705186  0.62518476     0.09500
C577        C  0.62738443  0.40568999  0.62474091     0.20400
C578        C  0.63507249  0.40928918  0.65792953    -0.54400
C579        C  0.62459007  0.39920149  0.64531617     0.09600
C580        C  0.65953005  0.41296097  0.63388244    -0.54000
C581        C  0.64870903  0.40381329  0.62091869     0.10100
H582        H  0.63273858  0.45127670  0.64079749     0.14700
H583        H  0.61837124  0.39808958  0.61451977     0.00400
H584        H  0.63246020  0.40786301  0.67287657     0.15000
H585        H  0.67484302  0.41286085  0.63326384     0.14700
C586        C  0.41756783  0.65964517  0.64594540     0.86500
C587        C  0.42893682  0.64843564  0.63095289    -0.53700
C588        C  0.41845954  0.63594215  0.62042201     0.09500
C589        C  0.39713437  0.63669406  0.62521484     0.20400
C590        C  0.40291007  0.66941189  0.63340856    -0.54400
C591        C  0.39202897  0.65774119  0.62279442     0.09600
C592        C  0.40678769  0.64456604  0.65707736    -0.54000
C593        C  0.39592074  0.63264962  0.64664698     0.10100
H594        H  0.44364378  0.65086255  0.62771423     0.14700
H595        H  0.38822817  0.62716030  0.61666620     0.00400
H596        H  0.40197116  0.68460770  0.63207501     0.15000
H597        H  0.40782349  0.64339394  0.67231774     0.14700
C598        C  0.35045596  0.58571260  0.34552376     0.86500
C599        C  0.36222439  0.60076667  0.33486819    -0.53700
C600        C  0.37445773  0.61083358  0.34601489     0.09500
C601        C  0.37297712  0.60541278  0.36722139     0.20400
C602        C  0.36506984  0.57394117  0.35629352    -0.54400
C603        C  0.37678784  0.58393105  0.36785595     0.09600
C604        C  0.34039690  0.59776902  0.36030918    -0.54000
C605        C  0.35177682  0.60766818  0.37199702     0.10100
H606        H  0.36058588  0.60404603  0.32005092     0.14700
H607        H  0.38232591  0.61364171  0.37663363     0.00400
H608        H  0.36600924  0.55877017  0.35478150     0.15000
H609        H  0.32514470  0.59875536  0.36129981     0.14700
C610        C  0.58432691  0.34854068  0.35712568     0.86500
C611        C  0.59982245  0.34065051  0.37049009    -0.53700
C612        C  0.60868968  0.35383872  0.38160724     0.09500
C613        C  0.60068426  0.37380799  0.37865882     0.20400
C614        C  0.57099741  0.35789342  0.37137427    -0.54400
C615        C  0.57904738  0.37154760  0.38210622     0.09600
C616        C  0.59367212  0.36495627  0.34649583    -0.54000
C617        C  0.60307715  0.37786762  0.35727898     0.10100
H618        H  0.60279036  0.32578519  0.37210089     0.14700
H619        H  0.60776122  0.38409637  0.38779771     0.00400
H620        H  0.55638464  0.35377706  0.37333378     0.15000
H621        H  0.59291372  0.36607176  0.33124927     0.14700
C622        C  0.34564765  0.35946825  0.58671525     0.86500
C623        C  0.33544821  0.37276256  0.60055977    -0.53700
C624        C  0.34688728  0.38493253  0.61018640     0.09500
C625        C  0.36786543  0.38278967  0.60460145     0.20400
C626        C  0.35680045  0.37232051  0.57366450    -0.54400
C627        C  0.36844896  0.38446637  0.58268475     0.09600
C628        C  0.36052660  0.34999283  0.59946715    -0.54000
C629        C  0.37238798  0.36199026  0.60887342     0.10100
H630        H  0.32048906  0.37196629  0.60340420     0.14700
H631        H  0.37696351  0.39266529  0.61225394     0.00400
H632        H  0.35584518  0.37164687  0.55839257     0.15000
H633        H  0.36152809  0.33484445  0.60098720     0.14700
O634        O  0.47618544  0.46673492  0.51712499    -0.78400
C635        C  0.51554389  0.46306576  0.46930814     0.82600
O636        O  0.52795717  0.50565134  0.53499223    -0.79600
O637        O  0.52759693  0.52458920  0.46893843    -0.81000
O638        O  0.46027039  0.51992091  0.47531458    -0.80800
O639        O  0.45413769  0.48824348  0.51100224    -0.79500
Zn640      Zn  0.50074833  0.47745405  0.50718018     1.55700
O641        O  0.48405740  0.51618440  0.45499678    -0.80900
Cd642      Cd  0.47033662  0.51051795  0.50096421     1.59700
Cd643      Cd  0.51298376  0.52115981  0.51474727     1.59600
O644        O  0.46660795  0.53245574  0.51980645    -0.80800
O645        O  0.49759250  0.50341023  0.49875325    -1.91400
Cd646      Cd  0.50568386  0.50534071  0.47163926     1.59900
O647        O  0.49557017  0.54001327  0.52933533    -0.80800
O648        O  0.51455819  0.47920337  0.46139862    -0.79500
C649        C  0.52890097  0.48795604  0.53815835     0.83100
C650        C  0.45909450  0.47224870  0.51746659     0.82700
O651        O  0.51049658  0.46048560  0.48636836    -0.78400
C652        C  0.46735678  0.52164308  0.45886436     0.83500
O653        O  0.51959093  0.47629291  0.52824261    -0.78500
C654        C  0.47771838  0.54242045  0.52976159     0.83700
C655        C  0.53561619  0.53621174  0.48003538     0.84000
O656        O  0.53157269  0.53680954  0.49762245    -0.80900
O657        O  0.48647593  0.72594648  0.76289844    -0.78400
C658        C  0.53654764  0.71809112  0.79786589     0.82600
O659        O  0.47944293  0.74130259  0.83193881    -0.79600
O660        O  0.53818986  0.77877589  0.81214996    -0.81000
O661        O  0.50929703  0.78444147  0.75597392    -0.80800
O662        O  0.47440084  0.75374578  0.75490260    -0.79500
Zn663      Zn  0.49628695  0.73060015  0.78917073     1.55700
O664        O  0.53714510  0.77288055  0.76519362    -0.80900
Cd665      Cd  0.48952627  0.77130812  0.77289100     1.59700
Cd666      Cd  0.49365345  0.76373162  0.81865833     1.59600
O667        O  0.47258826  0.79166072  0.78501735    -0.80800
O668        O  0.50236097  0.75650269  0.79287175    -1.91400
Cd669      Cd  0.53005105  0.76033102  0.79099454     1.59900
O670        O  0.47413519  0.78509385  0.81576978    -0.80800
O671        O  0.54345409  0.73460693  0.79587114    -0.79500
C672        C  0.47154831  0.72720667  0.82399489     0.83100
C673        C  0.47657798  0.73617403  0.75191368     0.82700
O674        O  0.51906573  0.71467879  0.79532794    -0.78400
C675        C  0.52708356  0.78280843  0.75401930     0.83500
O676        O  0.47559517  0.72293468  0.80705202    -0.78500
C677        C  0.46795002  0.79495802  0.80207826     0.83700
C678        C  0.53147145  0.78267985  0.82838298     0.84000
O679        O  0.51564918  0.77611412  0.83411939    -0.80900
O680        O  0.26675221  0.98654091  0.22048504    -0.78400
C681        C  0.29740681  0.04003481  0.21212373     0.82600
O682        O  0.33607925  0.99037482  0.23680522    -0.79600
O683        O  0.30784728  0.04342240  0.27357847    -0.81000
O684        O  0.25689654  0.01112152  0.27974516    -0.80800
O685        O  0.25658715  0.97789213  0.24893684    -0.79500
Zn686      Zn  0.29163612  0.99940982  0.22515706     1.55700
O687        O  0.26230754  0.03739377  0.26315876    -0.80900
Cd688      Cd  0.27500574  0.99182843  0.26686883     1.59700
Cd689      Cd  0.32004100  0.99950618  0.25986186     1.59600
O690        O  0.28855576  0.97348091  0.28609308    -0.80800
O691        O  0.29403574  0.00548522  0.25135243    -1.91400
Cd692      Cd  0.28954974  0.03274335  0.25388591     1.59900
O693        O  0.31914474  0.97801228  0.27984573    -0.80800
O694        O  0.29542501  0.04646030  0.22876005    -0.79500
C695        C  0.33005176  0.98210394  0.22200827     0.83100
C696        C  0.25460437  0.97846654  0.23106192     0.82700
O697        O  0.29525859  0.02259862  0.20846680    -0.78400
C698        C  0.25229695  0.02777966  0.27465128     0.83500
O699        O  0.31260719  0.98224838  0.21777311    -0.78500
C700        C  0.30601320  0.96980135  0.28908711     0.83700
C701        C  0.32410819  0.03817947  0.27908229     0.84000
O702        O  0.33148433  0.02262820  0.27387414    -0.80900
O703        O  0.20564373  0.80397489  0.98331177    -0.78400
C704        C  0.22464549  0.76298413  0.02813103     0.82600
O705        O  0.23477559  0.84324180  0.01813313    -0.79600
O706        O  0.28219820  0.79300074  0.03201554    -0.81000
O707        O  0.26098468  0.77148188  0.96749647    -0.80800
O708        O  0.22607968  0.80444279  0.95943562    -0.79500
Zn709      Zn  0.22144318  0.79952618  0.00644577     1.55700
O710        O  0.27380022  0.76297397  0.99502340    -0.80900
Cd711      Cd  0.25099481  0.79810160  0.97337621     1.59700
Cd712      Cd  0.25703009  0.82679983  0.00782650     1.59600
O713        O  0.27128327  0.81652443  0.96393213    -0.80800
O714        O  0.24775416  0.80127615  0.00084800    -1.91400
Cd715      Cd  0.26156379  0.78108204  0.01461250     1.59900
O716        O  0.27213817  0.83909080  0.98570643    -0.80800
O717        O  0.24253877  0.76433303  0.02971490    -0.79500
C718        C  0.21935379  0.83730557  0.02539081     0.83100
C719        C  0.20941178  0.80639157  0.96592502     0.82700
O720        O  0.21499674  0.77483483  0.01871958    -0.78400
C721        C  0.27102806  0.76035683  0.97742281     0.83500
O722        O  0.21424873  0.82021729  0.02375924    -0.78500
C723        C  0.27757301  0.83215153  0.97002435     0.83700
C724        C  0.28614724  0.81015061  0.03580544     0.84000
O725        O  0.27712797  0.82391364  0.02860911    -0.80900
C726        C  0.35353902  0.92011824  0.84470258     0.86500
C727        C  0.36888959  0.93149171  0.85521905    -0.53700
C728        C  0.38022466  0.92096025  0.86678330     0.09500
C729        C  0.37606986  0.89964308  0.86575018     0.20400
C730        C  0.36565154  0.90591655  0.83368468    -0.54400
C731        C  0.37719687  0.89502692  0.84452332     0.09600
C732        C  0.34357765  0.90871506  0.86019211    -0.54000
C733        C  0.35501325  0.89773416  0.87111307     0.10100
H734        H  0.37135505  0.94641015  0.85339085     0.14700
H735        H  0.38568842  0.89083608  0.87432763     0.00400
H736        H  0.36568186  0.90500461  0.81841629     0.15000
H737        H  0.32843419  0.90947851  0.86240914     0.14700
C738        C  0.65439229  0.86171695  0.91858410     0.86500
C739        C  0.66285386  0.87346387  0.90226073    -0.53700
C740        C  0.65031006  0.88504226  0.89322687     0.09500
C741        C  0.62980451  0.88281147  0.90063274     0.20400
C742        C  0.64420309  0.87618287  0.93106093    -0.54400
C743        C  0.63094223  0.88698812  0.92209802     0.09600
C744        C  0.63875073  0.85076862  0.90833715    -0.54000
C745        C  0.62575227  0.86148578  0.89916809     0.10100
H746        H  0.67722134  0.87224684  0.89728289     0.14700
H747        H  0.61928894  0.89143766  0.89296061     0.00400
H748        H  0.64740266  0.87766590  0.94593532     0.15000
H749        H  0.63833171  0.83550860  0.90777357     0.14700
C750        C  0.41133816  0.85138253  0.14926358     0.86500
C751        C  0.39589383  0.84318079  0.13670633    -0.53700
C752        C  0.38787473  0.85562273  0.12440530     0.09500
C753        C  0.39583985  0.87587252  0.12624307     0.20400
C754        C  0.42535036  0.86109041  0.13550346    -0.54400
C755        C  0.41737420  0.87385853  0.12335319     0.09600
C756        C  0.40200446  0.86837683  0.15910382    -0.54000
C757        C  0.39356574  0.88105764  0.14728599     0.10100
H758        H  0.39177471  0.82846358  0.13737029     0.14700
H759        H  0.38928283  0.88622372  0.11655296     0.00400
H760        H  0.44044076  0.85896634  0.13594126     0.15000
H761        H  0.40216636  0.87035382  0.17427899     0.14700
C762        C  0.34338112  0.15163595  0.08468649     0.86500
C763        C  0.35302707  0.13713266  0.07198216    -0.53700
C764        C  0.36594546  0.12614816  0.08086548     0.09500
C765        C  0.36685209  0.12946410  0.10261331     0.20400
C766        C  0.33405399  0.13881116  0.09984035    -0.54400
C767        C  0.34631347  0.12742609  0.10952603     0.09600
C768        C  0.35964247  0.16172422  0.09466257    -0.54000
C769        C  0.37158431  0.15065438  0.10501737     0.10100
H770        H  0.35020269  0.13573534  0.05702401     0.14700
H771        H  0.37602200  0.11966348  0.11030682     0.00400
H772        H  0.31897121  0.13789675  0.10214414     0.15000
H773        H  0.36164164  0.17678670  0.09310810     0.14700
C774        C  0.58117384  0.16092619  0.85530739     0.86500
C775        C  0.56790640  0.15012541  0.86897119    -0.53700
C776        C  0.57698569  0.13779756  0.88085995     0.09500
C777        C  0.59873385  0.13833362  0.87881066     0.20400
C778        C  0.59443589  0.17081726  0.86924846    -0.54400
C779        C  0.60402232  0.15930145  0.88124612     0.09600
C780        C  0.59287264  0.14553176  0.84588868    -0.54000
C781        C  0.60246648  0.13387156  0.85777894     0.10100
H782        H  0.55279907  0.15218371  0.86976366     0.14700
H783        H  0.60621182  0.12905498  0.88887895     0.00400
H784        H  0.59570138  0.18598569  0.87004769     0.15000
H785        H  0.59348778  0.14404108  0.83065749     0.14700
C786        C  0.64436335  0.09212271  0.14784260     0.86500
C787        C  0.63122227  0.10661139  0.15707585    -0.53700
C788        C  0.62017174  0.11665717  0.14495979     0.09500
C789        C  0.62277425  0.11068197  0.12415737     0.20400
C790        C  0.63006493  0.07967769  0.13706916    -0.54400
C791        C  0.61921123  0.08920330  0.12418918     0.09600
C792        C  0.65505348  0.10281280  0.13244558    -0.54000
C793        C  0.64409950  0.11272748  0.12016209     0.10100
H794        H  0.63019584  0.10838769  0.17221646     0.14700
H795        H  0.61366895  0.11856899  0.11422323     0.00400
H796        H  0.62811329  0.06476076  0.13957055     0.15000
H797        H  0.67034327  0.10254341  0.13138984     0.14700
O798        O  0.48130083  0.98974263  0.95810363    -0.78400
C799        C  0.51332431  0.04212622  0.96593459     0.82600
O800        O  0.53037652  0.97242575  0.00040138    -0.79600
O801        O  0.52082014  0.03417004  0.02557981    -0.81000
O802        O  0.45324228  0.02229293  0.01221581    -0.80800
O803        O  0.45707682  0.98782901  0.97817888    -0.79500
Zn804      Zn  0.50295307  0.00083790  0.97294345     1.55700
O805        O  0.47561320  0.04402631  0.01656710    -0.80900
Cd806      Cd  0.46831809  0.99868252  0.00300743     1.59700
Cd807      Cd  0.51157109  0.98847395  0.01619914     1.59600
O808        O  0.46520394  0.97797843  0.02361506    -0.80800
O809        O  0.49571893  0.00479175  0.99918874    -1.91400
Cd810      Cd  0.49980511  0.03184948  0.00570137     1.59900
O811        O  0.49455519  0.97071077  0.03237326    -0.80800
O812        O  0.50870098  0.04729499  0.98249089    -0.79500
C813        C  0.53369213  0.97219058  0.98272441     0.83100
C814        C  0.46434780  0.98509761  0.96193175     0.82700
O815        O  0.51177960  0.02507793  0.96058947    -0.78400
C816        C  0.45851078  0.03859664  0.01767042     0.83500
O817        O  0.52446005  0.98235826  0.97117304    -0.78500
C818        C  0.47671999  0.96846361  0.03362742     0.83700
C819        C  0.53034702  0.02253265  0.03536872     0.84000
O820        O  0.52809923  0.00477684  0.03404861    -0.80900
O821        O  0.98087843  0.78769242  0.23714667    -0.78400
C822        C  0.03335299  0.79688501  0.20408490     0.82600
O823        O  0.97413727  0.76828591  0.17083512    -0.79600
O824        O  0.03469388  0.73556116  0.19157527    -0.81000
O825        O  0.00884906  0.72880166  0.24448252    -0.80800
O826        O  0.97449810  0.75949307  0.24890692    -0.79500
Zn827      Zn  0.99326051  0.78338561  0.21214957     1.55700
O828        O  0.03447702  0.74544640  0.23713505    -0.80900
Cd829      Cd  0.98754096  0.74160428  0.22955172     1.59700
Cd830      Cd  0.99004687  0.74794403  0.18446594     1.59600
O831        O  0.96994170  0.72018455  0.21891087    -0.80800
O832        O  0.99894629  0.75728939  0.20925837    -1.91400
Cd833      Cd  0.02661286  0.75516106  0.21089070     1.59900
O834        O  0.97222127  0.72540078  0.18805161    -0.80800
O835        O  0.03996231  0.78023597  0.20436140    -0.79500
C836        C  0.96856418  0.78409124  0.17725360     0.83100
C837        C  0.97386685  0.77741861  0.25011870     0.82700
O838        O  0.01610044  0.80014538  0.20796497    -0.78400
C839        C  0.02592680  0.73348466  0.24749160     0.83500
O840        O  0.97475045  0.79072804  0.19266558    -0.78500
C841        C  0.96600090  0.71579567  0.20188669     0.83700
C842        C  0.02799970  0.73047582  0.17574935     0.84000
O843        O  0.01226778  0.73646875  0.16941169    -0.80900
O844        O  0.77872785  0.24592521  0.97965369    -0.78400
C845        C  0.78781205  0.21122713  0.03099606     0.82600
O846        O  0.76136298  0.17838805  0.97185530    -0.79600
O847        O  0.72721229  0.19799069  0.03216543    -0.81000
O848        O  0.72214257  0.25414278  0.00714184    -0.80800
O849        O  0.75047823  0.25555889  0.97094960    -0.79500
Zn850      Zn  0.77498246  0.22018199  0.99101328     1.55700
O851        O  0.73644704  0.24426357  0.03327876    -0.80900
Cd852      Cd  0.73306615  0.23735777  0.98584282     1.59700
Cd853      Cd  0.74017219  0.19198381  0.98726163     1.59600
O854        O  0.71100839  0.22651980  0.96948777    -0.80800
O855        O  0.74881679  0.21689404  0.99674464    -1.91400
Cd856      Cd  0.74612514  0.21819908  0.02442599     1.59900
O857        O  0.71750001  0.19577532  0.96958505    -0.80800
O858        O  0.77109116  0.21160371  0.03749767    -0.79500
C859        C  0.77739161  0.18481914  0.96663818     0.83100
C860        C  0.76827940  0.25799911  0.97147382     0.82700
O861        O  0.79144633  0.21547171  0.01389566    -0.78400
C862        C  0.72617369  0.25612521  0.02455459     0.83500
O863        O  0.78338739  0.20066563  0.97246612    -0.78500
C864        C  0.70720372  0.20961266  0.96467663     0.83700
C865        C  0.72256987  0.18213177  0.02524719     0.84000
O866        O  0.72855091  0.17643860  0.00925122    -0.80900
O867        O  0.23647793  0.02110029  0.71672413    -0.78400
C868        C  0.20316955  0.96936248  0.71285393     0.82600
O869        O  0.16788030  0.02748717  0.73515216    -0.79600
O870        O  0.19229885  0.97060206  0.77354626    -0.81000
O871        O  0.24481372  0.00367426  0.77625554    -0.80800
O872        O  0.24303114  0.03641443  0.74322812    -0.79500
Zn873      Zn  0.21047557  0.01047459  0.72246615     1.55700
O874        O  0.23769549  0.97538852  0.76425262    -0.80900
Cd875      Cd  0.22631795  0.02198336  0.76260706     1.59700
Cd876      Cd  0.18135462  0.01338748  0.75754358     1.59600
O877        O  0.21338191  0.04056648  0.78162969    -0.80800
O878        O  0.20720774  0.00672604  0.74900980    -1.91400
Cd879      Cd  0.21117778  0.97970566  0.75367286     1.59900
O880        O  0.18319602  0.03251184  0.77931778    -0.80800
O881        O  0.20588440  0.96388011  0.72973374    -0.79500
C882        C  0.17480505  0.03346727  0.71952244     0.83100
C883        C  0.24676010  0.03251609  0.72605996     0.82700
O884        O  0.20492505  0.98656436  0.70805547    -0.78400
C885        C  0.24817832  0.98614615  0.77404119     0.83500
O886        O  0.19119038  0.02886735  0.71383613    -0.78500
C887        C  0.19618681  0.04232944  0.78682005     0.83700
C888        C  0.17531718  0.97519199  0.77706691     0.84000
O889        O  0.16778507  0.99001705  0.77003953    -0.80900
C890        C  0.15055524  0.15476578  0.91398362     0.86500
C891        C  0.14118340  0.13990955  0.92695503    -0.53700
C892        C  0.12976286  0.12714696  0.91806214     0.09500
C893        C  0.12921616  0.13018279  0.89643207     0.20400
C894        C  0.16125375  0.14232223  0.89967666    -0.54400
C895        C  0.15016791  0.12973592  0.89014434     0.09600
C896        C  0.13440548  0.16341492  0.90279287    -0.54000
C897        C  0.12289857  0.15094075  0.89389375     0.10100
H898        H  0.14383237  0.13899449  0.94190761     0.14700
H899        H  0.12037796  0.11974156  0.88893934     0.00400
H900        H  0.17634640  0.14330989  0.89726958     0.15000
H901        H  0.13190571  0.17850264  0.90242824     0.14700
C902        C  0.14936480  0.91750455  0.15637227     0.86500
C903        C  0.13648488  0.93225669  0.14699461    -0.53700
C904        C  0.12337908  0.92502777  0.13491529     0.09500
C905        C  0.12435741  0.90338914  0.13310910     0.20400
C906        C  0.13604122  0.90306431  0.16536621    -0.54400
C907        C  0.12272201  0.89580453  0.15351684     0.09600
C908        C  0.15784666  0.90743032  0.13904618    -0.54000
C909        C  0.14494188  0.89948729  0.12715796     0.10100
H910        H  0.13819831  0.94730296  0.14893717     0.14700
H911        H  0.11369046  0.89756755  0.12330844     0.00400
H912        H  0.13703903  0.89899290  0.18010154     0.15000
H913        H  0.17277423  0.90723432  0.13574451     0.14700
C914        C  0.91003782  0.15591806  0.14350979     0.86500
C915        C  0.92318847  0.14613517  0.12938064    -0.53700
C916        C  0.91434843  0.13489042  0.11650379     0.09500
C917        C  0.89259606  0.13470544  0.11868858     0.20400
C918        C  0.89535077  0.16648053  0.13123820    -0.54400
C919        C  0.88646342  0.15560807  0.11790292     0.09600
C920        C  0.89792062  0.14019655  0.15197952    -0.54000
C921        C  0.88898321  0.12893858  0.13940841     0.10100
H922        H  0.93869598  0.14760258  0.12992939     0.14700
H923        H  0.88543451  0.12560729  0.10823267     0.00400
H924        H  0.89127390  0.18095263  0.13354830     0.15000
H925        H  0.89577358  0.13851290  0.16708081     0.14700
C926        C  0.84821971  0.86131852  0.08227528     0.86500
C927        C  0.83706994  0.87213282  0.09759622    -0.53700
C928        C  0.84778592  0.88358982  0.10875078     0.09500
C929        C  0.86903875  0.88241319  0.10434932     0.20400
C930        C  0.85965724  0.87641960  0.07175709    -0.54400
C931        C  0.87086334  0.88731653  0.08313449     0.09600
C932        C  0.86288342  0.85057128  0.09393022    -0.54000
C933        C  0.87367803  0.86121231  0.10566176     0.10100
H934        H  0.82203980  0.87062990  0.09994724     0.14700
H935        H  0.87759690  0.89143890  0.11374549     0.00400
H936        H  0.85950185  0.87784383  0.05651168     0.15000
H937        H  0.86427094  0.83539168  0.09346546     0.14700
C938        C  0.08443669  0.85107899  0.85264408     0.86500
C939        C  0.09744553  0.84131884  0.86690582    -0.53700
C940        C  0.10705628  0.85327677  0.87856177     0.09500
C941        C  0.10240087  0.87429781  0.87516842     0.20400
C942        C  0.07146167  0.86395970  0.86463491    -0.54400
C943        C  0.08070529  0.87575231  0.87684135     0.09600
C944        C  0.09704328  0.86554379  0.84255224    -0.54000
C945        C  0.10640986  0.87777414  0.85397920     0.10100
H946        H  0.09933136  0.82615752  0.86735287     0.14700
H947        H  0.11005994  0.88393445  0.88476447     0.00400
H948        H  0.05629991  0.86466745  0.86301266     0.15000
H949        H  0.09772377  0.86676662  0.82730791     0.14700
C950        C  0.85859954  0.08758122  0.84880162     0.86500
C951        C  0.87111020  0.10235960  0.83861440    -0.53700
C952        C  0.88221050  0.11317555  0.85019919     0.09500
C953        C  0.87953697  0.10809645  0.87121010     0.20400
C954        C  0.87221691  0.07607900  0.86069784    -0.54400
C955        C  0.88309669  0.08644479  0.87253451     0.09600
C956        C  0.84761391  0.09967106  0.86309779    -0.54000
C957        C  0.85816116  0.11075154  0.87480141     0.10100
H958        H  0.87052787  0.10504245  0.82364336     0.14700
H959        H  0.88839728  0.11684254  0.88032792     0.00400
H960        H  0.87289235  0.06081367  0.86016884     0.15000
H961        H  0.83236068  0.09933241  0.86388455     0.14700
O962        O  0.99005294  0.04721681  0.01556464    -0.78400
C963        C  0.04408120  0.03545759  0.98469429     0.82600
O964        O  0.97012197  0.00499769  0.96983582    -0.79600
O965        O  0.03240899  0.97577153  0.97820076    -0.81000
O966        O  0.02262823  0.99459863  0.04539817    -0.80800
O967        O  0.98858187  0.02814909  0.04048849    -0.79500
Zn968      Zn  0.00199371  0.03145876  0.99456405     1.55700
O969        O  0.04320741  0.98668447  0.02297655    -0.80900
Cd970      Cd  0.99931986  0.00327744  0.03005286     1.59700
Cd971      Cd  0.98711315  0.98853694  0.98770289     1.59600
O972        O  0.97850643  0.98371819  0.03483640    -0.80800
O973        O  0.00468540  0.00527701  0.00241326    -1.91400
Cd974      Cd  0.03113389  0.99663010  0.99833913     1.59900
O975        O  0.96957856  0.97387482  0.00633723    -0.80800
O976        O  0.04769577  0.01841061  0.98882303    -0.79500
C977        C  0.97114255  0.02242884  0.96540225     0.83100
C978        C  0.98522504  0.04391215  0.03260874     0.82700
O979        O  0.02752039  0.04235895  0.98643809    -0.78400
C980        C  0.03836830  0.98762070  0.04026279     0.83500
O981        O  0.98346747  0.03317715  0.97286574    -0.78500
C982        C  0.96810452  0.97364891  0.02429622     0.83700
C983        C  0.02018455  0.96610467  0.96933079     0.84000
O984        O  0.00250427  0.96895120  0.97159595    -0.80900
O985        O  0.21658902  0.27236233  0.98321001    -0.78400
C986        C  0.20959958  0.30377659  0.03552753     0.82600
O987        O  0.23414126  0.34132517  0.98298918    -0.79600
O988        O  0.27112460  0.31377398  0.03797212    -0.81000
O989        O  0.27452799  0.26180782  0.00517749    -0.80800
O990        O  0.24397825  0.26431674  0.97017970    -0.79500
Zn991      Zn  0.22217453  0.29741394  0.99503028     1.55700
O992        O  0.26116160  0.26877887  0.03292969    -0.80900
Cd993      Cd  0.26248729  0.28061784  0.98619474     1.59700
Cd994      Cd  0.25681738  0.32603381  0.99469180     1.59600
O995        O  0.28303457  0.29360811  0.96940337    -0.80800
O996        O  0.24826979  0.29992667  0.00059276    -1.91400
Cd997      Cd  0.25120991  0.29547830  0.02782630     1.59900
O998        O  0.27836827  0.32428469  0.97475257    -0.80800
O999        O  0.22616089  0.30096710  0.04191686    -0.79500
C1000       C  0.21931384  0.33465196  0.97517254     0.83100
C1001       C  0.22630445  0.26169758  0.97252600     0.82700
O1002       O  0.20594807  0.30222139  0.01802390    -0.78400
C1003       C  0.27142774  0.25832007  0.02258606     0.83500
O1004       O  0.21507123  0.31733533  0.97679226    -0.78500
C1005       C  0.28717411  0.31091391  0.96653920     0.83700
C1006       C  0.27530486  0.33068209  0.03373768     0.84000
O1007       O  0.26903505  0.33843781  0.01868867    -0.80900
O1008       O  0.76865222  0.49184993  0.71312971    -0.78400
C1009       C  0.80058329  0.54462637  0.70907187     0.82600
O1010       O  0.83670586  0.48919811  0.73306546    -0.79600
O1011       O  0.81021888  0.54436922  0.76991240    -0.81000
O1012       O  0.75853982  0.51202152  0.77474969    -0.80800
O1013       O  0.75824065  0.48038886  0.74070287    -0.79500
Zn1014     Zn  0.79391201  0.50327823  0.71939947     1.55700
O1015       O  0.76386964  0.53938252  0.76042391    -0.80900
Cd1016     Cd  0.77600439  0.49348338  0.76016828     1.59700
Cd1017     Cd  0.82113355  0.50142734  0.75457901     1.59600
O1018       O  0.78871243  0.47499509  0.77961671    -0.80800
O1019       O  0.79540861  0.50802622  0.74590492    -1.91400
Cd1020     Cd  0.79103824  0.53518558  0.75004541     1.59900
O1021       O  0.81925842  0.48160519  0.77547689    -0.80800
O1022       O  0.79674549  0.55047268  0.72562249    -0.79500
C1023       C  0.83065223  0.48200283  0.71775428     0.83100
C1024       C  0.75666187  0.48256718  0.72286468     0.82700
O1025       O  0.79951257  0.52723007  0.70477830    -0.78400
C1026       C  0.75407538  0.52913797  0.77158571     0.83500
O1027       O  0.81400003  0.48501564  0.71180005    -0.78500
C1028       C  0.80608756  0.47287308  0.78399577     0.83700
C1029       C  0.82670493  0.53890488  0.77458653     0.84000
O1030       O  0.83400888  0.52389873  0.76797557    -0.80900
O1031       O  0.98134898  0.21346196  0.79367278    -0.78400
C1032       C  0.02372919  0.23260530  0.75014758     0.82600
O1033       O  0.01962645  0.24195789  0.83059220    -0.79600
O1034       O  0.03150251  0.28850998  0.78254192    -0.81000
O1035       O  0.96629647  0.26876409  0.75961034    -0.80800
O1036       O  0.95762257  0.23398361  0.79341337    -0.79500
Zn1037     Zn  0.00439894  0.22874842  0.78805324     1.55700
O1038       O  0.99348477  0.28329433  0.75351290    -0.80900
Cd1039     Cd  0.97168527  0.25889163  0.78682651     1.59700
Cd1040     Cd  0.00580083  0.26368680  0.81613107     1.59600
O1041       O  0.96214087  0.27831958  0.80626320    -0.80800
O1042       O  0.99903844  0.25506294  0.79037886    -1.91400
Cd1043     Cd  0.01283384  0.26919865  0.77040446     1.59900
O1044       O  0.98213073  0.27479328  0.83023776    -0.80800
O1045       O  0.02596959  0.25036533  0.75192943    -0.79500
C1046       C  0.02630457  0.22650253  0.82424077     0.83100
C1047       C  0.96402202  0.21740433  0.79604522     0.82700
O1048       O  0.01489509  0.22285238  0.76242486    -0.78400
C1049       C  0.97634805  0.27967598  0.74933739     0.83500
O1050       O  0.02282262  0.22069198  0.80766395    -0.78500
C1051       C  0.96670647  0.28119097  0.82340560     0.83700
C1052       C  0.03367195  0.29342553  0.79973398     0.84000
O1053       O  0.02486913  0.28549215  0.81330209    -0.80900
C1054       C  0.84210197  0.36337499  0.91198791     0.86500
C1055       C  0.85429846  0.37471914  0.92619928    -0.53700
C1056       C  0.86918694  0.38437746  0.91822018     0.09500
C1057       C  0.87056746  0.38128394  0.89672867     0.20400
C1058       C  0.83663089  0.37740417  0.89652364    -0.54400
C1059       C  0.85121961  0.38753307  0.88878912     0.09600
C1060       C  0.85670802  0.35051554  0.90288360    -0.54000
C1061       C  0.87123206  0.35951440  0.89442861     0.10100
H1062       H  0.85215488  0.37432958  0.94131918     0.14700
H1063       H  0.88264216  0.38888609  0.89076960     0.00400
H1064       H  0.82208677  0.37910037  0.89207398     0.15000
H1065       H  0.85576464  0.33524938  0.90307396     0.14700
C1066       C  0.14402037  0.41867266  0.84741121     0.86500
C1067       C  0.13112729  0.40393408  0.83844359    -0.53700
C1068       C  0.11868910  0.39542537  0.85055235     0.09500
C1069       C  0.12070795  0.40235005  0.87116048     0.20400
C1070       C  0.13072196  0.43228963  0.85789874    -0.54400
C1071       C  0.11846600  0.42394946  0.87019463     0.09600
C1072       C  0.15374389  0.40818704  0.86376692    -0.54000
C1073       C  0.14174592  0.39931104  0.87606434     0.10100
H1074       H  0.13192905  0.40042393  0.82357193     0.14700
H1075       H  0.11076251  0.39565225  0.88121117     0.00400
H1076       H  0.13178048  0.44744520  0.85706592     0.15000
H1077       H  0.16895385  0.40777549  0.86551216     0.14700
C1078       C  0.91554032  0.66106076  0.85176650     0.86500
C1079       C  0.90140816  0.67188671  0.86406711    -0.53700
C1080       C  0.89082312  0.66108472  0.87597715     0.09500
C1081       C  0.89576777  0.63989403  0.87500960     0.20400
C1082       C  0.92740493  0.65086479  0.86699142    -0.54400
C1083       C  0.91725862  0.63923615  0.87870947     0.09600
C1084       C  0.90419457  0.64539633  0.84226227    -0.54000
C1085       C  0.89360182  0.63440808  0.85402067     0.10100
H1086       H  0.90035914  0.68711680  0.86397574     0.14700
H1087       H  0.88731842  0.63115749  0.88487221     0.00400
H1088       H  0.94233584  0.65304371  0.86919100     0.15000
H1089       H  0.90459271  0.64317033  0.82711446     0.14700
C1090       C  0.08151223  0.35325352  0.14408960     0.86500
C1091       C  0.06790943  0.36389541  0.13121918    -0.53700
C1092       C  0.07644464  0.37550331  0.11855635     0.09500
C1093       C  0.09839494  0.37594055  0.12024464     0.20400
C1094       C  0.09541856  0.34356325  0.13073007    -0.54400
C1095       C  0.10499890  0.35517976  0.11866460     0.09600
C1096       C  0.09266248  0.36965295  0.15327730    -0.54000
C1097       C  0.10193390  0.38132003  0.14091480     0.10100
H1098       H  0.05266274  0.36296513  0.13248848     0.14700
H1099       H  0.10567715  0.38553574  0.11042342     0.00400
H1100       H  0.09754452  0.32844238  0.13101979     0.15000
H1101       H  0.09199984  0.37309085  0.16811226     0.14700
C1102       C  0.85397216  0.58926463  0.15894452     0.86500
C1103       C  0.86472056  0.57779829  0.14367833    -0.53700
C1104       C  0.87435455  0.58845220  0.13063323     0.09500
C1105       C  0.87118289  0.60972940  0.13335374     0.20400
C1106       C  0.86864133  0.60308880  0.16680067    -0.54400
C1107       C  0.87805771  0.61386327  0.15372304     0.09600
C1108       C  0.84077099  0.60131242  0.14708971    -0.54000
C1109       C  0.84930020  0.61200838  0.13381747     0.10100
H1110       H  0.86413956  0.56272355  0.14215111     0.14700
H1111       H  0.87846882  0.61778971  0.12230945     0.00400
H1112       H  0.87091777  0.60451971  0.18184952     0.15000
H1113       H  0.82549908  0.60086852  0.14855152     0.14700
C1114       C  0.14864043  0.65584658  0.08481569     0.86500
C1115       C  0.15995769  0.64502858  0.09994067    -0.53700
C1116       C  0.14971249  0.63233389  0.11022675     0.09500
C1117       C  0.12851923  0.63226131  0.10519918     0.20400
C1118       C  0.13853043  0.64056834  0.07325973    -0.54400
C1119       C  0.12768537  0.62835947  0.08373215     0.09600
C1120       C  0.13299181  0.66502556  0.09662447    -0.54000
C1121       C  0.12240390  0.65299187  0.10726172     0.10100
H1122       H  0.17477913  0.64742985  0.10280423     0.14700
H1123       H  0.12011922  0.62232288  0.11390535     0.00400
H1124       H  0.13926376  0.63997700  0.05798220     0.15000
H1125       H  0.13081819  0.68010998  0.09721670     0.14700
O1126       O  0.01841730  0.54618402  0.01779651    -0.78400
C1127       C  0.98089304  0.54626623  0.96632228     0.82600
O1128       O  0.96388832  0.51020964  0.03337597    -0.79600
O1129       O  0.97135298  0.48396836  0.96962545    -0.81000
O1130       O  0.03776635  0.49291252  0.97913250    -0.80800
O1131       O  0.03975643  0.52323343  0.01587262    -0.79500
Zn1132     Zn  0.99454265  0.53547369  0.00573533     1.55700
O1133       O  0.01526968  0.49460472  0.95732338    -0.80900
Cd1134     Cd  0.02453608  0.50159484  0.00357680     1.59700
Cd1135     Cd  0.98070486  0.49289392  0.01606677     1.59600
O1136       O  0.02605955  0.47918939  0.02176222    -0.80800
O1137       O  0.99764055  0.50888992  0.99952366    -1.91400
Cd1138     Cd  0.99186614  0.50456985  0.97223605     1.59900
O1139       O  0.99722294  0.47542837  0.03347654    -0.80800
O1140       O  0.98172052  0.52937729  0.96023799    -0.79500
C1141       C  0.96295413  0.52814432  0.03467037     0.83100
C1142       C  0.03494385  0.53975547  0.02086736     0.82700
O1143       O  0.98649082  0.55070660  0.98281104    -0.78400
C1144       C  0.03205327  0.49045539  0.96230992     0.83500
O1145       O  0.97352289  0.53867384  0.02464538    -0.78500
C1146       C  0.01476336  0.47123401  0.03322056     0.83700
C1147       C  0.96148060  0.47420364  0.98108529     0.84000
O1148       O  0.96323598  0.47594480  0.99897609    -0.80900
O1149       O  0.51466672  0.79626190  0.30032290    -0.78400
C1150       C  0.47109348  0.77731490  0.25695657     0.82600
O1151       O  0.47358462  0.76398819  0.33652645    -0.79600
O1152       O  0.46842191  0.71794649  0.28441846    -0.81000
O1153       O  0.53341197  0.74137463  0.26828533    -0.80800
O1154       O  0.53838410  0.77585549  0.30262696    -0.79500
Zn1155     Zn  0.49137193  0.78045381  0.29491838     1.55700
O1156       O  0.50656973  0.72923078  0.25731572    -0.80900
Cd1157     Cd  0.52509005  0.75078115  0.29498880     1.59700
Cd1158     Cd  0.48780165  0.74349782  0.32082501     1.59600
O1159       O  0.53280490  0.73044279  0.31438252    -0.80800
O1160       O  0.49722312  0.75393896  0.29628955    -1.91400
Cd1161     Cd  0.48565710  0.74013892  0.27467750     1.59900
O1162       O  0.50936793  0.72999034  0.33548719    -0.80800
O1163       O  0.47163142  0.75933368  0.25732902    -0.79500
C1164       C  0.46859438  0.78048264  0.33136464     0.83100
C1165       C  0.53187289  0.79254509  0.30403478     0.82700
O1166       O  0.47862315  0.78696909  0.27010845    -0.78400
C1167       C  0.52428383  0.73210015  0.25584886     0.83500
O1168       O  0.47361504  0.78745261  0.31560341    -0.78500
C1169       C  0.52553527  0.72451179  0.32976014     0.83700
C1170       C  0.46365469  0.71292363  0.30111199     0.84000
O1171       O  0.46917145  0.72188850  0.31562396    -0.80900
O1172       O  0.52154737  0.22627420  0.73286560    -0.78400
C1173       C  0.47015582  0.21959344  0.70007184     0.82600
O1174       O  0.52468793  0.24618182  0.66468267    -0.79600
O1175       O  0.46676289  0.28020391  0.69090960    -0.81000
O1176       O  0.49941376  0.28557594  0.74368516    -0.80800
O1177       O  0.53290077  0.25407727  0.74216809    -0.79500
Zn1178     Zn  0.51059815  0.23210274  0.70736915     1.55700
O1179       O  0.47190223  0.27167400  0.73705689    -0.80900
Cd1180     Cd  0.51838342  0.27280665  0.72513954     1.59700
Cd1181     Cd  0.51053315  0.26718062  0.67991116     1.59600
O1182       O  0.53694321  0.29210135  0.71242096    -0.80800
O1183       O  0.50435505  0.25825798  0.70573301    -1.91400
Cd1184     Cd  0.47699232  0.26103457  0.71011228     1.59900
O1185       O  0.52958305  0.28864165  0.68212096    -0.80800
O1186       O  0.46343465  0.23573619  0.70419509    -0.79500
C1187       C  0.53290931  0.23155291  0.67124533     0.83100
C1188       C  0.53097501  0.23634978  0.74436111     0.82700
O1189       O  0.48776551  0.21616667  0.70116127    -0.78400
C1190       C  0.48211597  0.28215872  0.74755115     0.83500
O1191       O  0.52999558  0.22565724  0.68794570    -0.78500
C1192       C  0.53912364  0.29650781  0.69505292     0.83700
C1193       C  0.47191819  0.28545202  0.67448829     0.84000
O1194       O  0.48734438  0.27983880  0.66705764    -0.80900
O1195       O  0.70510914  0.98863571  0.79534162    -0.78400
C1196       C  0.74922637  0.03149430  0.77668214     0.82600
O1197       O  0.67024999  0.03372497  0.76750378    -0.79600
O1198       O  0.71630605  0.04376095  0.72246577    -0.81000
O1199       O  0.73459740  0.97532615  0.73563985    -0.80800
O1200       O  0.70346038  0.96598476  0.77385179    -0.79500
Zn1201     Zn  0.71096524  0.01241027  0.78089800     1.55700
O1202       O  0.74318224  0.00364451  0.72450285    -0.80900
Cd1203     Cd  0.70906008  0.98142967  0.74911444     1.59700
Cd1204     Cd  0.68265595  0.01833859  0.74584734     1.59600
O1205       O  0.68751343  0.97435908  0.73095944    -0.80800
O1206       O  0.70766818  0.00885742  0.75421370    -1.91400
Cd1207     Cd  0.72765465  0.02284264  0.74015232     1.59900
O1208       O  0.66593783  0.99685771  0.73510649    -0.80800
O1209       O  0.74690375  0.03427328  0.75905192    -0.79500
C1210       C  0.67649612  0.03783194  0.78386340     0.83100
C1211       C  0.70172246  0.97162066  0.79086952     0.82700
O1212       O  0.73718579  0.02245548  0.78661547    -0.78400
C1213       C  0.74529175  0.98582128  0.72551810     0.83500
O1214       O  0.69184050  0.03088643  0.79001376    -0.78500
C1215       C  0.67106425  0.98106752  0.72826497     0.83700
C1216       C  0.69940811  0.04647429  0.71685295     0.84000
O1217       O  0.68590875  0.03681145  0.72366551    -0.80900
C1218       C  0.35310508  0.09813892  0.65604205     0.86500
C1219       C  0.36439985  0.08581261  0.64194501    -0.53700
C1220       C  0.37487472  0.09569683  0.62901318     0.09500
C1221       C  0.37217434  0.11717362  0.63052169     0.20400
C1222       C  0.36775813  0.11185488  0.66421498    -0.54400
C1223       C  0.37768164  0.12215236  0.65109342     0.09600
C1224       C  0.34096766  0.11012605  0.64279919    -0.54000
C1225       C  0.35057636  0.11984081  0.62933128     0.10100
H1226       H  0.36374700  0.07063534  0.64131357     0.14700
H1227       H  0.37998081  0.12522215  0.61960634     0.00400
H1228       H  0.36999318  0.11332907  0.67927796     0.15000
H1229       H  0.32566197  0.11016748  0.64339061     0.14700
C1230       C  0.58374454  0.86083703  0.64726308     0.86500
C1231       C  0.57138316  0.87066043  0.63217029    -0.53700
C1232       C  0.58067542  0.88316692  0.62064980     0.09500
C1233       C  0.60204055  0.88423796  0.62499025     0.20400
C1234       C  0.59916252  0.85147954  0.63503311    -0.54400
C1235       C  0.60908438  0.86359163  0.62361699     0.09600
C1236       C  0.59383239  0.87673824  0.65743189    -0.54000
C1237       C  0.60300757  0.88932650  0.64625248     0.10100
H1238       H  0.55671236  0.86740444  0.62994292     0.14700
H1239       H  0.60975835  0.89398567  0.61550969     0.00400
H1240       H  0.60198637  0.83646908  0.63530631     0.15000
H1241       H  0.59333620  0.87817443  0.67268440     0.14700
C1242       C  0.65975955  0.15591589  0.58532486     0.86500
C1243       C  0.66912144  0.14669432  0.60244214    -0.53700
C1244       C  0.65792119  0.13436117  0.61196963     0.09500
C1245       C  0.63737515  0.13319649  0.60413202     0.20400
C1246       C  0.65191312  0.13936937  0.57374423    -0.54400
C1247       C  0.63941918  0.12782822  0.58307040     0.09600
C1248       C  0.64236125  0.16547889  0.59440787    -0.54000
C1249       C  0.63030635  0.15370936  0.60388975     0.10100
H1250       H  0.68354291  0.14947566  0.60673095     0.14700
H1251       H  0.62777267  0.12384041  0.61199583     0.00400
H1252       H  0.65589497  0.13725714  0.55913693     0.15000
H1253       H  0.64013643  0.18056159  0.59439934     0.14700
C1254       C  0.35125187  0.86434398  0.42309295     0.86500
C1255       C  0.36364902  0.87794308  0.43441017    -0.53700
C1256       C  0.37542881  0.88908809  0.42375270     0.09500
C1257       C  0.37411034  0.88485741  0.40233697     0.20400
C1258       C  0.34133135  0.87678477  0.40821798    -0.54400
C1259       C  0.35307177  0.88744317  0.39716811     0.09600
C1260       C  0.36532238  0.85295845  0.41111670    -0.54000
C1261       C  0.37767010  0.86349207  0.40080974     0.10100
H1262       H  0.36310212  0.87864813  0.44969158     0.14700
H1263       H  0.38362978  0.89334479  0.39330478     0.00400
H1264       H  0.32629699  0.87650958  0.40576174     0.15000
H1265       H  0.36586182  0.83768694  0.41104499     0.14700
C1266       C  0.64023179  0.92306099  0.34762728     0.86500
C1267       C  0.62674519  0.90860787  0.33873954    -0.53700
C1268       C  0.61559105  0.89888375  0.35122873     0.09500
C1269       C  0.61863526  0.90507376  0.37196101     0.20400
C1270       C  0.62737510  0.93593030  0.35973677    -0.54400
C1271       C  0.61563750  0.92665695  0.37210209     0.09600
C1272       C  0.65095833  0.91215905  0.36297121    -0.54000
C1273       C  0.63999523  0.90266205  0.37562252     0.10100
H1274       H  0.62633481  0.90607519  0.32365671     0.14700
H1275       H  0.60964232  0.89738965  0.38221716     0.00400
H1276       H  0.62817841  0.95113116  0.35974426     0.15000
H1277       H  0.66621029  0.91251611  0.36423482     0.14700
C1278       C  0.41081668  0.16068511  0.35463219     0.86500
C1279       C  0.39622171  0.17170407  0.36656267    -0.53700
C1280       C  0.38642881  0.16103808  0.37951202     0.09500
C1281       C  0.39253684  0.14004665  0.37950846     0.20400
C1282       C  0.42335434  0.15163479  0.36998431    -0.54400
C1283       C  0.41414935  0.14045877  0.38284904     0.09600
C1284       C  0.39980310  0.14435928  0.34622833    -0.54000
C1285       C  0.39039578  0.13336927  0.35881877     0.10100
H1286       H  0.39392679  0.18672755  0.36498563     0.14700
H1287       H  0.38459515  0.13146511  0.38989960     0.00400
H1288       H  0.43824831  0.15437000  0.37125187     0.15000
H1289       H  0.39984376  0.14138454  0.33119795     0.14700
O1290       O  0.51390042  0.97241326  0.51484268    -0.78400
C1291       C  0.46256743  0.98419462  0.48408971     0.82600
O1292       O  0.53195748  0.01632685  0.46591301    -0.79600
O1293       O  0.47309538  0.04571216  0.48045072    -0.81000
O1294       O  0.48462246  0.02858172  0.54534411    -0.80800
O1295       O  0.51447112  0.98993359  0.54077417    -0.79500
Zn1296     Zn  0.50404247  0.98910520  0.49428302     1.55700
O1297       O  0.46230873  0.03210531  0.52342668    -0.80900
Cd1298     Cd  0.50715939  0.01655262  0.53024941     1.59700
Cd1299     Cd  0.51854084  0.03178377  0.48739380     1.59600
O1300       O  0.53060651  0.03360238  0.53405899    -0.80800
O1301       O  0.50121308  0.01499343  0.50259261    -1.91400
Cd1302     Cd  0.47443251  0.02299540  0.49864122     1.59900
O1303       O  0.53879603  0.04371542  0.50530526    -0.80800
O1304       O  0.45815975  0.00110576  0.48810635    -0.79500
C1305       C  0.53155705  0.99872050  0.46226212     0.83100
C1306       C  0.51712815  0.97425610  0.53237061     0.82700
O1307       O  0.47931920  0.97808986  0.48598381    -0.78400
C1308       C  0.46812417  0.03380759  0.54029892     0.83500
O1309       O  0.52186705  0.98740822  0.47231842    -0.78500
C1310       C  0.54134771  0.04311134  0.52315548     0.83700
C1311       C  0.48537375  0.05623592  0.47256688     0.84000
O1312       O  0.50307540  0.05328438  0.47426479    -0.80900
C1313       C  0.42464100  0.12986127  0.39814176     0.01400
C1314       C  0.42111764  0.11046233  0.40178937     0.04200
C1315       C  0.43227949  0.10041123  0.41482614    -0.11900
C1316       C  0.44758751  0.10916337  0.42386627     0.23500
C1317       C  0.45100008  0.12842416  0.42073410    -0.12400
C1318       C  0.43919977  0.13889763  0.40859137     0.04900
C1319       C  0.45983527  0.09786340  0.43674321     0.27300
C1320       C  0.45715599  0.09865399  0.45644547    -0.13100
C1321       C  0.46667181  0.08589725  0.46835275     0.05400
C1322       C  0.47851414  0.07193676  0.46061102    -0.09100
C1323       C  0.48192784  0.07176213  0.44102294     0.06200
C1324       C  0.47282633  0.08485390  0.42916914    -0.13400
Br1325     Br  0.47221297  0.14033455  0.43288947    -0.05500
Br1326     Br  0.40176996  0.09655069  0.38888618     0.00100
Br1327     Br  0.46347603  0.08748602  0.49532805     0.00600
Br1328     Br  0.47733583  0.08434921  0.40234313    -0.03800
Br1329     Br  0.44227716  0.16595828  0.40798393     0.00700
Br1330     Br  0.42680946  0.07425310  0.42033154    -0.03100
Br1331     Br  0.43957307  0.11647343  0.46701295    -0.04000
Br1332     Br  0.49770844  0.05247226  0.43019321     0.00000
C1333       C  0.60166143  0.93697713  0.38439672     0.01400
C1334       C  0.60155051  0.93498541  0.40432148     0.04200
C1335       C  0.58938888  0.94603425  0.41553739    -0.11900
C1336       C  0.57709241  0.95912014  0.40713816     0.23500
C1337       C  0.57649938  0.96063924  0.38737081    -0.12400
C1338       C  0.58842133  0.94943289  0.37606453     0.04900
C1339       C  0.56462392  0.97097144  0.41926999     0.27300
C1340       C  0.54579464  0.96559453  0.42263499    -0.13100
C1341       C  0.53451918  0.97591823  0.43530450     0.05400
C1342       C  0.54244957  0.99073251  0.44607346    -0.09100
C1343       C  0.56117292  0.99652722  0.44212000     0.06200
C1344       C  0.57194045  0.98702397  0.42833707    -0.13400
Br1345     Br  0.55930812  0.97826461  0.37584717    -0.05500
Br1346     Br  0.61782456  0.91748670  0.41698457     0.00100
Br1347     Br  0.50789778  0.97017762  0.43703664     0.00600
Br1348     Br  0.59701401  0.99561225  0.42205454    -0.03800
Br1349     Br  0.58509029  0.95004216  0.34909839     0.00700
Br1350     Br  0.58949172  0.94341220  0.44269014    -0.03100
Br1351     Br  0.53571129  0.94349772  0.41047924    -0.04000
Br1352     Br  0.57288590  0.01645722  0.45631836     0.00000
C1353       C  0.38764577  0.90410343  0.43245610     0.01400
C1354       C  0.37974888  0.91673995  0.44583487     0.04200
C1355       C  0.39127284  0.92980564  0.45534294    -0.11900
C1356       C  0.41060901  0.93097891  0.45117768     0.23500
C1357       C  0.41844254  0.91924521  0.43731965    -0.12400
C1358       C  0.40710370  0.90598484  0.42785820     0.04900
C1359       C  0.42267877  0.94523726  0.46060623     0.27300
C1360       C  0.42558221  0.96290667  0.45200855    -0.13100
C1361       C  0.43840407  0.97580946  0.45986779     0.05400
C1362       C  0.44805216  0.97126766  0.47664570    -0.09100
C1363       C  0.44461927  0.95383031  0.48562895     0.06200
C1364       C  0.43208028  0.94077800  0.47751932    -0.13400
Br1365     Br  0.44500449  0.92156231  0.43138964    -0.05500
Br1366     Br  0.35280776  0.91789614  0.44997025     0.00100
Br1367     Br  0.44382783  0.99905801  0.44677425     0.00600
Br1368     Br  0.42806677  0.91656933  0.48924136    -0.03800
Br1369     Br  0.41908533  0.89108249  0.40865738     0.00700
Br1370     Br  0.38064985  0.94645814  0.47401523    -0.03100
Br1371     Br  0.41232810  0.96911536  0.42908983    -0.04000
Br1372     Br  0.45681132  0.94794569  0.50924374     0.00000
C1373       C  0.55708896  0.05400492  0.53167633     0.01400
C1374       C  0.57579849  0.05176925  0.52514004     0.04200
C1375       C  0.59056551  0.06245179  0.53308212    -0.11900
C1376       C  0.58674973  0.07533508  0.54765999     0.23500
C1377       C  0.56820091  0.07730309  0.55447936    -0.12400
C1378       C  0.55345645  0.06665296  0.54660533     0.04900
C1379       C  0.60192692  0.08752127  0.55546673     0.27300
C1380       C  0.61103046  0.08252088  0.57227585    -0.13100
C1381       C  0.62316240  0.09538386  0.58138392     0.05400
C1382       C  0.62718018  0.11333667  0.57314570    -0.09100
C1383       C  0.61837729  0.11774293  0.55553737     0.06200
C1384       C  0.60575665  0.10497479  0.54703544    -0.13400
Br1385     Br  0.56299395  0.09510956  0.57436984    -0.05500
Br1386     Br  0.58145055  0.03338386  0.50602013     0.00100
Br1387     Br  0.63331968  0.08738657  0.60524902     0.00600
Br1388     Br  0.59271318  0.11157788  0.52399881    -0.03800
Br1389     Br  0.52817295  0.07019900  0.55591905     0.00700
Br1390     Br  0.61605774  0.05963349  0.52400673    -0.03100
Br1391     Br  0.60629091  0.05784581  0.58289946    -0.04000
Br1392     Br  0.62162259  0.14166070  0.54289004     0.00000
C1393       C  0.57089727  0.89447042  0.60543116     0.01400
C1394       C  0.57421607  0.91413447  0.60353840     0.04200
C1395       C  0.56515364  0.92464601  0.58936887    -0.11900
C1396       C  0.55161308  0.91619534  0.57772297     0.23500
C1397       C  0.54813676  0.89677138  0.57927323    -0.12400
C1398       C  0.55801201  0.88581430  0.59268727     0.04900
C1399       C  0.54061022  0.92834242  0.56460505     0.27300
C1400       C  0.52473929  0.93814693  0.57140446    -0.13100
C1401       C  0.51660131  0.95268958  0.56060748     0.05400
C1402       C  0.52453867  0.95779423  0.54303543    -0.09100
C1403       C  0.53981439  0.94716156  0.53576356     0.06200
C1404       C  0.54760505  0.93232662  0.54644315    -0.13400
Br1405     Br  0.52978760  0.88533066  0.56282398    -0.05500
Br1406     Br  0.58960240  0.92796034  0.62097626     0.00100
Br1407     Br  0.49428126  0.96522633  0.56980497     0.00600
Br1408     Br  0.56846048  0.91787692  0.53667036    -0.03800
Br1409     Br  0.55439172  0.85882982  0.59227868     0.00700
Br1410     Br  0.57105160  0.95105556  0.58585959    -0.03100
Br1411     Br  0.51464321  0.93198328  0.59593741    -0.04000
Br1412     Br  0.55136667  0.95373532  0.51192624     0.00000
C1413       C  0.45516613  0.04249645  0.55414617     0.01400
C1414       C  0.43905500  0.03259515  0.56032978     0.04200
C1415       C  0.42560172  0.04153498  0.57188640    -0.11900
C1416       C  0.42852785  0.06020548  0.57789769     0.23500
C1417       C  0.44465856  0.07010998  0.57177333    -0.12400
C1418       C  0.45771482  0.06140720  0.55959665     0.04900
C1419       C  0.41473884  0.06932217  0.59082894     0.27300
C1420       C  0.39997576  0.08034939  0.58355331    -0.13100
C1421       C  0.38684823  0.08885077  0.59582866     0.05400
C1422       C  0.38834797  0.08638296  0.61560769    -0.09100
C1423       C  0.40348780  0.07551332  0.62278770     0.06200
C1424       C  0.41651082  0.06699647  0.61044062    -0.13400
Br1425     Br  0.44861712  0.09571634  0.57987852    -0.05500
Br1426     Br  0.43551372  0.00672026  0.55297813     0.00100
Br1427     Br  0.36682820  0.10339740  0.58495910     0.00600
Br1428     Br  0.43723970  0.05242240  0.62030546    -0.03800
Br1429     Br  0.47832626  0.07581510  0.54930091     0.00700
Br1430     Br  0.40284722  0.02846599  0.57910967    -0.03100
Br1431     Br  0.39790292  0.08377034  0.55660066    -0.04000
Br1432     Br  0.40777263  0.07367896  0.64959898     0.00000
C1433       C  0.66585565  0.12261192  0.62744294     0.01400
C1434       C  0.66807489  0.12993855  0.64578095     0.04200
C1435       C  0.67488172  0.11830942  0.66042316    -0.11900
C1436       C  0.67945208  0.09930759  0.65679127     0.23500
C1437       C  0.67888450  0.09263517  0.63808282    -0.12400
C1438       C  0.67340221  0.10473154  0.62335212     0.04900
C1439       C  0.68495797  0.08645363  0.67254793     0.27300
C1440       C  0.70380250  0.08055415  0.67472603    -0.13100
C1441       C  0.70865080  0.06729148  0.68879641     0.05400
C1442       C  0.69490571  0.06105165  0.70207331    -0.09100
C1443       C  0.67627728  0.06848895  0.70067017     0.06200
C1444       C  0.67120880  0.08013703  0.68539914    -0.13400
Br1445     Br  0.68511087  0.06680367  0.63255667    -0.05500
Br1446     Br  0.66374428  0.15634906  0.65039406     0.00100
Br1447     Br  0.73403874  0.05740052  0.68867881     0.00600
Br1448     Br  0.64511752  0.08718619  0.68173396    -0.03800
Br1449     Br  0.67891776  0.09784810  0.59759485     0.00700
Br1450     Br  0.67828399  0.12842686  0.68540566    -0.03100
Br1451     Br  0.72303743  0.09090178  0.65836244    -0.04000
Br1452     Br  0.65745808  0.06438058  0.72010743     0.00000
C1453       C  0.65781866  0.96997722  0.71668300     0.01400
C1454       C  0.64957723  0.97784434  0.70034011     0.04200
C1455       C  0.63895565  0.96638695  0.68812937    -0.11900
C1456       C  0.63723001  0.94697678  0.69180023     0.23500
C1457       C  0.64481494  0.93928094  0.70844701    -0.12400
C1458       C  0.65480111  0.95081348  0.72102370     0.04900
C1459       C  0.62780467  0.93443355  0.67805583     0.27300
C1460       C  0.60860502  0.93013983  0.68019635    -0.13100
C1461       C  0.60008539  0.91689541  0.66827394     0.05400
C1462       C  0.61109097  0.90674934  0.65494740    -0.09100
C1463       C  0.63001104  0.91227247  0.65184003     0.06200
C1464       C  0.63829121  0.92612402  0.66339127    -0.13400
Br1465     Br  0.64180219  0.91278742  0.71377515    -0.05500
Br1466     Br  0.65402747  0.00385471  0.69375466     0.00100
Br1467     Br  0.57301789  0.91359398  0.66978838     0.00600
Br1468     Br  0.66436589  0.93317556  0.65987852    -0.03800
Br1469     Br  0.66402183  0.94039261  0.74444327     0.00700
Br1470     Br  0.62695493  0.97705227  0.66618249    -0.03100
Br1471     Br  0.59426127  0.94179324  0.70018017    -0.04000
Br1472     Br  0.64504272  0.90091242  0.63233344     0.00000
C1473       C  0.45735050  0.20480805  0.69266226     0.01400
C1474       C  0.45728898  0.18647669  0.70042862     0.04200
C1475       C  0.44538222  0.17247727  0.69286452    -0.11900
C1476       C  0.43338106  0.17673553  0.67761934     0.23500
C1477       C  0.43374436  0.19487359  0.66957568    -0.12400
C1478       C  0.44579007  0.20880416  0.67692122     0.04900
C1479       C  0.41948754  0.16260553  0.67070867     0.27300
C1480       C  0.42401538  0.15040778  0.65579419    -0.13100
C1481       C  0.41050578  0.13744356  0.64896921     0.05400
C1482       C  0.39200606  0.13689201  0.65676669    -0.09100
C1483       C  0.38740001  0.15026974  0.67088905     0.06200
C1484       C  0.40123242  0.16233994  0.67835613    -0.13400
Br1485     Br  0.41759433  0.20055517  0.64842489    -0.05500
Br1486     Br  0.47289706  0.18067984  0.72192030     0.00100
Br1487     Br  0.41818865  0.12075213  0.62911352     0.00600
Br1488     Br  0.39525304  0.17874890  0.69923090    -0.03800
Br1489     Br  0.44717217  0.23302347  0.66454632     0.00700
Br1490     Br  0.44527110  0.14744358  0.70342213    -0.03100
Br1491     Br  0.44897977  0.15156950  0.64489803    -0.04000
Br1492     Br  0.36175973  0.15428248  0.67863810     0.00000
C1493       C  0.61238722  0.16107209  0.61274232     0.01400
C1494       C  0.60084804  0.17345980  0.60219915     0.04200
C1495       C  0.58807404  0.18556733  0.61120378    -0.11900
C1496       C  0.58467649  0.18367817  0.63061231     0.23500
C1497       C  0.59370856  0.16917152  0.64074008    -0.12400
C1498       C  0.60761917  0.15793462  0.63194317     0.04900
C1499       C  0.57131762  0.19665372  0.64025449     0.27300
C1500       C  0.57830169  0.21112092  0.65190084    -0.13100
C1501       C  0.56571035  0.22264079  0.66199451     0.05400
C1502       C  0.54609188  0.22070346  0.65940158    -0.09100
C1503       C  0.53910097  0.20666777  0.64729574     0.06200
C1504       C  0.55165904  0.19439058  0.63806383    -0.13400
Br1505     Br  0.58706090  0.16502166  0.66684430    -0.05500
Br1506     Br  0.59999304  0.17177506  0.57525327     0.00100
Br1507     Br  0.57531333  0.24027297  0.68024911     0.00600
Br1508     Br  0.54194581  0.17394274  0.62308845    -0.03800
Br1509     Br  0.61887532  0.13801003  0.64645645     0.00700
Br1510     Br  0.57576029  0.20525140  0.59699798    -0.03100
Br1511     Br  0.60515696  0.21502826  0.65409300    -0.04000
Br1512     Br  0.51222798  0.20363122  0.64429630     0.00000
C1513       C  0.54428437  0.80796317  0.31096822     0.01400
C1514       C  0.55368931  0.80617240  0.32847109     0.04200
C1515       C  0.56453736  0.82123116  0.33559237    -0.11900
C1516       C  0.56602658  0.83822053  0.32538282     0.23500
C1517       C  0.55661827  0.84005580  0.30798773    -0.12400
C1518       C  0.54586899  0.82499184  0.30076925     0.04900
C1519       C  0.57850519  0.85368161  0.33230379     0.27300
C1520       C  0.57146558  0.86790097  0.34417265    -0.13100
C1521       C  0.58337753  0.88262477  0.35039831     0.05400
C1522       C  0.60269432  0.88307580  0.34510161    -0.09100
C1523       C  0.60968932  0.86820679  0.33369167     0.06200
C1524       C  0.59758484  0.85398667  0.32698787    -0.13400
Br1525     Br  0.55870771  0.86326664  0.29397972    -0.05500
Br1526     Br  0.55111231  0.78343879  0.34324842     0.00100
Br1527     Br  0.57255194  0.90228640  0.36554646     0.00600
Br1528     Br  0.60706794  0.83468524  0.31030898    -0.03800
Br1529     Br  0.53414431  0.82739800  0.27637277     0.00700
Br1530     Br  0.57743075  0.81872424  0.35940936    -0.03100
Br1531     Br  0.54528200  0.86716050  0.35162551    -0.04000
Br1532     Br  0.63614938  0.86568220  0.32840976     0.00000
C1533       C  0.39368230  0.85447012  0.39061820     0.01400
C1534       C  0.39443761  0.85438262  0.37074132     0.04200
C1535       C  0.40785528  0.84314828  0.36134927    -0.11900
C1536       C  0.42036684  0.83179369  0.37177245     0.23500
C1537       C  0.42053394  0.83286904  0.39153754    -0.12400
C1538       C  0.40749118  0.84440053  0.40091663     0.04900
C1539       C  0.43300140  0.81826893  0.36207994     0.27300
C1540       C  0.42625228  0.80022535  0.35728848    -0.13100
C1541       C  0.43813713  0.78735707  0.34798102     0.05400
C1542       C  0.45691189  0.79241057  0.34375811    -0.09100
C1543       C  0.46387001  0.81016125  0.34935145     0.06200
C1544       C  0.45186628  0.82316275  0.35823418    -0.13400
Br1545     Br  0.43849733  0.81815671  0.40574835    -0.05500
Br1546     Br  0.37687594  0.86904589  0.35622812     0.00100
Br1547     Br  0.42837664  0.76329092  0.34007812     0.00600
Br1548     Br  0.46107094  0.84785033  0.36481466    -0.03800
Br1549     Br  0.40964821  0.84717867  0.42781772     0.00700
Br1550     Br  0.40901270  0.84296106  0.33418452    -0.03100
Br1551     Br  0.40057667  0.79335858  0.36326211    -0.04000
Br1552     Br  0.49005661  0.81649451  0.34518029     0.00000
C1553       C  0.04895813  0.55169351  0.03065707     0.01400
C1554       C  0.04720923  0.55518452  0.05014964     0.04200
C1555       C  0.06018741  0.56709456  0.05933578    -0.11900
C1556       C  0.07553802  0.57485682  0.04924780     0.23500
C1557       C  0.07780713  0.57050813  0.02996137    -0.12400
C1558       C  0.06437818  0.55925625  0.02063430     0.04900
C1559       C  0.08872685  0.58838277  0.05850633     0.27300
C1560       C  0.08719197  0.60775471  0.05462178    -0.13100
C1561       C  0.10018076  0.62061360  0.06236407     0.05400
C1562       C  0.11443687  0.61437437  0.07491807    -0.09100
C1563       C  0.11518694  0.59498901  0.07961445     0.06200
C1564       C  0.10280337  0.58202769  0.07098038    -0.13400
Br1565     Br  0.09935123  0.58007845  0.01630718    -0.05500
Br1566     Br  0.02751722  0.54292365  0.06440731     0.00100
Br1567     Br  0.09689681  0.64701504  0.05695682     0.00600
Br1568     Br  0.10522346  0.55541144  0.07599939    -0.03800
Br1569     Br  0.06672052  0.55465253  0.99394335     0.00700
Br1570     Br  0.05667552  0.57314919  0.08561650    -0.03100
Br1571     Br  0.06668643  0.61670308  0.03908865    -0.04000
Br1572     Br  0.13290558  0.58573200  0.09789576     0.00000
C1573       C  0.94956868  0.53721676  0.04828444     0.01400
C1574       C  0.93094839  0.53029449  0.05069018     0.04200
C1575       C  0.91852675  0.53892858  0.06365736    -0.11900
C1576       C  0.92447307  0.55452764  0.07434690     0.23500
C1577       C  0.94274303  0.56181804  0.07165410    -0.12400
C1578       C  0.95523336  0.55329638  0.05874589     0.04900
C1579       C  0.91159874  0.56324227  0.08856958     0.27300
C1580       C  0.89848389  0.57701608  0.08307811    -0.13100
C1581       C  0.88639983  0.58539033  0.09652801     0.05400
C1582       C  0.88730705  0.58005111  0.11587920    -0.09100
C1583       C  0.90123475  0.56672087  0.12128896     0.06200
C1584       C  0.91299815  0.55820464  0.10769552    -0.13400
Br1585     Br  0.95056813  0.58367503  0.08580525    -0.05500
Br1586     Br  0.92176147  0.50974174  0.03549089     0.00100
Br1587     Br  0.86889107  0.60396395  0.08748387     0.00600
Br1588     Br  0.93144412  0.53966962  0.11521504    -0.03800
Br1589     Br  0.98030587  0.56371512  0.05623442     0.00700
Br1590     Br  0.89311452  0.52963235  0.06672405    -0.03100
Br1591     Br  0.89736824  0.58446042  0.05686304    -0.04000
Br1592     Br  0.90585264  0.56105974  0.14747432     0.00000
C1593       C  0.06505735  0.38824118  0.10653034     0.01400
C1594       C  0.06072429  0.38326979  0.08785534     0.04200
C1595       C  0.05284918  0.39672019  0.07560404    -0.11900
C1596       C  0.04737954  0.41446598  0.08260789     0.23500
C1597       C  0.04908461  0.41828432  0.10203017    -0.12400
C1598       C  0.05749846  0.40497612  0.11406937     0.04900
C1599       C  0.03900840  0.42881269  0.06985286     0.27300
C1600       C  0.04982927  0.44435303  0.06398329    -0.13100
C1601       C  0.04159126  0.45869059  0.05302647     0.05400
C1602       C  0.02269219  0.45689737  0.04651988    -0.09100
C1603       C  0.01199316  0.44101339  0.05233798     0.06200
C1604       C  0.02001346  0.42735670  0.06433454    -0.13400
Br1605     Br  0.04020540  0.44190326  0.11204771    -0.05500
Br1606     Br  0.06248803  0.35732212  0.08013719     0.00100
Br1607     Br  0.05623525  0.48129674  0.04850918     0.00600
Br1608     Br  0.00494169  0.40658102  0.07352859    -0.03800
Br1609     Br  0.05791252  0.40935379  0.14095915     0.00700
Br1610     Br  0.04993535  0.39095473  0.04922724    -0.03100
Br1611     Br  0.07611311  0.44587430  0.07103208    -0.04000
Br1612     Br  0.98656887  0.43705490  0.04362869     0.00000
C1613       C  0.92664686  0.62621297  0.89244005     0.01400
C1614       C  0.93900446  0.61208264  0.88569452     0.04200
C1615       C  0.94839114  0.60002762  0.89835504    -0.11900
C1616       C  0.94552564  0.60181032  0.91789602     0.23500
C1617       C  0.93299432  0.61558767  0.92473050    -0.12400
C1618       C  0.92330853  0.62749644  0.91206629     0.04900
C1619       C  0.95456464  0.58815118  0.93105035     0.27300
C1620       C  0.94429755  0.57236852  0.93740207    -0.13100
C1621       C  0.95283254  0.55912131  0.94942750     0.05400
C1622       C  0.97203421  0.56088435  0.95430720    -0.09100
C1623       C  0.98233232  0.57670600  0.94801543     0.06200
C1624       C  0.97351816  0.59046474  0.93665358    -0.13400
Br1625     Br  0.92913232  0.61798698  0.95156810    -0.05500
Br1626     Br  0.94143630  0.60742241  0.85901920     0.00100
Br1627     Br  0.93777060  0.53928189  0.96033513     0.00600
Br1628     Br  0.98732997  0.61246266  0.92861220    -0.03800
Br1629     Br  0.90522049  0.64504193  0.92193222     0.00700
Br1630     Br  0.96475203  0.58045875  0.88894237    -0.03100
Br1631     Br  0.91858709  0.56870006  0.92925067    -0.04000
Br1632     Br  0.00863088  0.57917922  0.95442454     0.00000
C1633       C  0.04514955  0.48179675  0.94845380     0.01400
C1634       C  0.04851524  0.49037610  0.93077988     0.04200
C1635       C  0.06056287  0.48169928  0.91755121    -0.11900
C1636       C  0.06960426  0.46460887  0.92202663     0.23500
C1637       C  0.06661169  0.45624187  0.93980728    -0.12400
C1638       C  0.05423165  0.46461750  0.95287031     0.04900
C1639       C  0.08194321  0.45509729  0.90795285     0.27300
C1640       C  0.07436680  0.44128460  0.89594912    -0.13100
C1641       C  0.08614811  0.43142801  0.88335780     0.05400
C1642       C  0.10575531  0.43511265  0.88283634    -0.09100
C1643       C  0.11326491  0.44926583  0.89479458     0.06200
C1644       C  0.10133783  0.45925050  0.90715531    -0.13400
Br1645     Br  0.07948675  0.43314577  0.94613807    -0.05500
Br1646     Br  0.03729964  0.51441573  0.92494662     0.00100
Br1647     Br  0.07497366  0.41343529  0.86644775     0.00600
Br1648     Br  0.11155280  0.47838662  0.92350194    -0.03800
Br1649     Br  0.04888095  0.45174711  0.97632384     0.00700
Br1650     Br  0.06472514  0.49311375  0.89320345    -0.03100
Br1651     Br  0.04769720  0.43584335  0.89698432    -0.04000
Br1652     Br  0.14012696  0.45398041  0.89591395     0.00000
C1653       C  0.88283619  0.39658980  0.92919377     0.01400
C1654       C  0.87607241  0.41016928  0.94225668     0.04200
C1655       C  0.88873464  0.42155407  0.95252811    -0.11900
C1656       C  0.90821591  0.42067782  0.94895786     0.23500
C1657       C  0.91513688  0.40769318  0.93577721    -0.12400
C1658       C  0.90271311  0.39548428  0.92623644     0.04900
C1659       C  0.92134981  0.43448683  0.95779585     0.27300
C1660       C  0.92292800  0.45273805  0.95018109    -0.13100
C1661       C  0.93579350  0.46573508  0.95788688     0.05400
C1662       C  0.94757338  0.46050530  0.97315855    -0.09100
C1663       C  0.94644600  0.44188163  0.98020670     0.06200
C1664       C  0.93308919  0.42910801  0.97287302    -0.13400
Br1665     Br  0.94193775  0.40712488  0.93048200    -0.05500
Br1666     Br  0.84956306  0.41539358  0.94475211     0.00100
Br1667     Br  0.93691228  0.49068945  0.94721116     0.00600
Br1668     Br  0.93108873  0.40398827  0.98311701    -0.03800
Br1669     Br  0.91409015  0.37751636  0.90950307     0.00700
Br1670     Br  0.87949771  0.43887395  0.97134791    -0.03100
Br1671     Br  0.90769250  0.45970577  0.92869528    -0.04000
Br1672     Br  0.96455902  0.43298712  0.99832695     0.00000
C1673       C  0.04600305  0.30947450  0.80449596     0.01400
C1674       C  0.03782481  0.32554050  0.81272407     0.04200
C1675       C  0.04925707  0.33948853  0.82080551    -0.11900
C1676       C  0.06901191  0.33832309  0.81918206     0.23500
C1677       C  0.07724795  0.32289901  0.80972529    -0.12400
C1678       C  0.06576605  0.30823006  0.80281425     0.04900
C1679       C  0.08104528  0.35318130  0.82770903     0.27300
C1680       C  0.08301968  0.37076422  0.81877784    -0.13100
C1681       C  0.09405459  0.38497078  0.82709061     0.05400
C1682       C  0.10458699  0.38120843  0.84369898    -0.09100
C1683       C  0.10205144  0.36359931  0.85288297     0.06200
C1684       C  0.08990171  0.34994005  0.84513809    -0.13400
Br1685     Br  0.10425643  0.32175830  0.80666004    -0.05500
Br1686     Br  0.01087079  0.32886215  0.81199990     0.00100
Br1687     Br  0.09319434  0.40999317  0.81628698     0.00600
Br1688     Br  0.08500234  0.32667852  0.85848506    -0.03800
Br1689     Br  0.07706229  0.28612009  0.79190295     0.00700
Br1690     Br  0.03787837  0.35970036  0.83494131    -0.03100
Br1691     Br  0.07054848  0.37530474  0.79501025    -0.04000
Br1692     Br  0.11537689  0.35712676  0.87560924     0.00000
C1693       C  0.95325571  0.29198746  0.83542995     0.01400
C1694       C  0.93370020  0.28788107  0.83454793     0.04200
C1695       C  0.92066208  0.29867573  0.84485857    -0.11900
C1696       C  0.92674395  0.31461093  0.85493063     0.23500
C1697       C  0.94613160  0.31888143  0.85579248    -0.12400
C1698       C  0.95941621  0.30703963  0.84694783     0.04900
C1699       C  0.91275891  0.32644144  0.86512252     0.27300
C1700       C  0.89994431  0.33776690  0.85498335    -0.13100
C1701       C  0.88562275  0.34749240  0.86458318     0.05400
C1702       C  0.88579963  0.34839533  0.88439861    -0.09100
C1703       C  0.89791487  0.33626453  0.89457368     0.06200
C1704       C  0.91123338  0.32520381  0.88491836    -0.13400
Br1705     Br  0.95433877  0.34139024  0.86864541    -0.05500
Br1706     Br  0.92439160  0.26702741  0.81979345     0.00100
Br1707     Br  0.86358661  0.35558297  0.85084592     0.00600
Br1708     Br  0.92687861  0.30774815  0.89872520    -0.03800
Br1709     Br  0.98585705  0.31167593  0.85098750     0.00700
Br1710     Br  0.89437920  0.29139699  0.84552415    -0.03100
Br1711     Br  0.90173137  0.33979306  0.82791346    -0.04000
Br1712     Br  0.89548793  0.33370361  0.92164786     0.00000
C1713       C  0.81166227  0.46080267  0.80007070     0.01400
C1714       C  0.80865399  0.44119011  0.79977564     0.04200
C1715       C  0.81593481  0.42978744  0.81436980    -0.11900
C1716       C  0.82626253  0.43796751  0.82924295     0.23500
C1717       C  0.82931570  0.45754254  0.82948023    -0.12400
C1718       C  0.82191305  0.46893408  0.81506606     0.04900
C1719       C  0.83371054  0.42615088  0.84488559     0.27300
C1720       C  0.82381989  0.42511506  0.86200929    -0.13100
C1721       C  0.83099376  0.41440053  0.87706317     0.05400
C1722       C  0.84746640  0.40320682  0.87472103    -0.09100
C1723       C  0.85861322  0.40636388  0.85821246     0.06200
C1724       C  0.85142617  0.41743571  0.84327520    -0.13400
Br1725     Br  0.84404866  0.46866557  0.84945061    -0.05500
Br1726     Br  0.79551346  0.42988238  0.77889872     0.00100
Br1727     Br  0.81925540  0.41728564  0.90153488     0.00600
Br1728     Br  0.86582583  0.42097400  0.82034576    -0.03800
Br1729     Br  0.82558911  0.49586946  0.81613198     0.00700
Br1730     Br  0.81224530  0.40290459  0.81385013    -0.03100
Br1731     Br  0.80026721  0.43850093  0.86474931    -0.04000
Br1732     Br  0.88429586  0.39779836  0.85556599     0.00000
C1733       C  0.83728855  0.55015685  0.78857198     0.01400
C1734       C  0.82824687  0.55576421  0.80544178     0.04200
C1735       C  0.83749139  0.56783225  0.81809007    -0.11900
C1736       C  0.85581164  0.57429640  0.81405127     0.23500
C1737       C  0.86530972  0.56788016  0.79782969    -0.12400
C1738       C  0.85612083  0.55575178  0.78511703     0.04900
C1739       C  0.86416141  0.58950914  0.82563275     0.27300
C1740       C  0.86098780  0.60829793  0.82042774    -0.13100
C1741       C  0.86944980  0.62295052  0.83061547     0.05400
C1742       C  0.88138648  0.61899352  0.84618492    -0.09100
C1743       C  0.88288041  0.60007123  0.85247994     0.06200
C1744       C  0.87466382  0.58538760  0.84191290    -0.13400
Br1745     Br  0.89063091  0.57651693  0.79270731    -0.05500
Br1746     Br  0.80328356  0.54665404  0.81163593     0.00100
Br1747     Br  0.86341184  0.64842798  0.82351076     0.00600
Br1748     Br  0.87801186  0.55944986  0.84934456    -0.03800
Br1749     Br  0.86903160  0.54795207  0.76246006     0.00700
Br1750     Br  0.82484415  0.57621554  0.84067813    -0.03100
Br1751     Br  0.84501607  0.61384989  0.79904138    -0.04000
Br1752     Br  0.89565528  0.59356106  0.87546854     0.00000
C1753       C  0.12125049  0.34804063  0.10677579     0.01400
C1754       C  0.12362997  0.35352909  0.08758793     0.04200
C1755       C  0.13805595  0.34552111  0.07647046    -0.11900
C1756       C  0.15036590  0.33209625  0.08417016     0.23500
C1757       C  0.14860127  0.32688196  0.10316373    -0.12400
C1758       C  0.13447200  0.33497605  0.11454591     0.04900
C1759       C  0.16575411  0.32409212  0.07239144     0.27300
C1760       C  0.16237962  0.30826291  0.06095081    -0.13100
C1761       C  0.17667579  0.30142137  0.04893681     0.05400
C1762       C  0.19456186  0.31023122  0.04857247    -0.09100
C1763       C  0.19782463  0.32614386  0.06006334     0.06200
C1764       C  0.18353797  0.33290150  0.07204368    -0.13400
Br1765     Br  0.16584493  0.30848097  0.11347208    -0.05500
Br1766     Br  0.10761531  0.37172929  0.07549451     0.00100
Br1767     Br  0.17163905  0.27998015  0.03308074     0.00600
Br1768     Br  0.18808542  0.35461112  0.08772505    -0.03800
Br1769     Br  0.13491834  0.32863584  0.14108143     0.00700
Br1770     Br  0.14115084  0.35277128  0.05033241    -0.03100
Br1771     Br  0.13804015  0.29611468  0.06178788    -0.04000
Br1772     Br  0.22117956  0.34003342  0.05810885     0.00000
C1773       C  0.14920164  0.38790373  0.89219267     0.01400
C1774       C  0.16217259  0.37321264  0.88858732     0.04200
C1775       C  0.17286682  0.36540334  0.90329059    -0.11900
C1776       C  0.17024918  0.37169809  0.92186136     0.23500
C1777       C  0.15590031  0.38474912  0.92589946    -0.12400
C1778       C  0.14518726  0.39264327  0.91115118     0.04900
C1779       C  0.18221785  0.36397556  0.93714728     0.27300
C1780       C  0.17542691  0.34919637  0.94842815    -0.13100
C1781       C  0.18695593  0.34136867  0.96245955     0.05400
C1782       C  0.20626662  0.34665194  0.96380801    -0.09100
C1783       C  0.21282773  0.36206050  0.95284959     0.06200
C1784       C  0.20061983  0.37092636  0.93989241    -0.13400
Br1785     Br  0.15129170  0.39203504  0.95171570    -0.05500
Br1786     Br  0.16411990  0.36225128  0.86391136     0.00100
Br1787     Br  0.17542509  0.32432472  0.98046845     0.00600
Br1788     Br  0.20917075  0.39222959  0.92520881    -0.03800
Br1789     Br  0.12498524  0.40941965  0.91754054     0.00700
Br1790     Br  0.19123032  0.34601430  0.89808358    -0.03100
Br1791     Br  0.15060143  0.33892348  0.94384786    -0.04000
Br1792     Br  0.23848916  0.37092577  0.95462305     0.00000
C1793       C  0.89416473  0.12934594  0.84294161     0.01400
C1794       C  0.88660364  0.14224998  0.82955347     0.04200
C1795       C  0.89809810  0.15619142  0.82121778    -0.11900
C1796       C  0.91712085  0.15788756  0.82637230     0.23500
C1797       C  0.92464407  0.14583856  0.84015334    -0.12400
C1798       C  0.91321760  0.13199299  0.84879415     0.04900
C1799       C  0.92890276  0.17325372  0.81826539     0.27300
C1800       C  0.93783566  0.17098116  0.80063821    -0.13100
C1801       C  0.94898102  0.18560766  0.79307579     0.05400
C1802       C  0.95137446  0.20248333  0.80321076    -0.09100
C1803       C  0.94299441  0.20444520  0.82116067     0.06200
C1804       C  0.93142549  0.19006817  0.82845207    -0.13400
Br1805     Br  0.95093257  0.14846867  0.84702237    -0.05500
Br1806     Br  0.86002632  0.14273712  0.82376827     0.00100
Br1807     Br  0.96103868  0.18252354  0.76886922     0.00600
Br1808     Br  0.91918379  0.19324054  0.85257463    -0.03800
Br1809     Br  0.92443413  0.11785643  0.86903810     0.00700
Br1810     Br  0.88781960  0.17339323  0.80276168    -0.03100
Br1811     Br  0.93498466  0.14768741  0.78705519    -0.04000
Br1812     Br  0.94895560  0.22590229  0.83669469     0.00000
C1813       C  0.89607361  0.07687583  0.88592531     0.01400
C1814       C  0.88924616  0.07036034  0.90347500     0.04200
C1815       C  0.90131309  0.06067178  0.91591557    -0.11900
C1816       C  0.92049332  0.05805555  0.91124094     0.23500
C1817       C  0.92702164  0.06372264  0.89327520    -0.12400
C1818       C  0.91442604  0.07176590  0.88020038     0.04900
C1819       C  0.93345545  0.04874980  0.92499115     0.27300
C1820       C  0.93891440  0.05826635  0.94151258    -0.13100
C1821       C  0.95011788  0.04915311  0.95515018     0.05400
C1822       C  0.95743387  0.03090618  0.95173672    -0.09100
C1823       C  0.95172331  0.02132826  0.93519212     0.06200
C1824       C  0.93951653  0.03007473  0.92211979    -0.13400
Br1825     Br  0.95321265  0.06068769  0.88655812    -0.05500
Br1826     Br  0.86286915  0.07287828  0.90972243     0.00100
Br1827     Br  0.95363922  0.06120086  0.97931440     0.00600
Br1828     Br  0.93071938  0.01632061  0.90035000    -0.03800
Br1829     Br  0.92139266  0.07306378  0.85387696     0.00700
Br1830     Br  0.89139484  0.05027880  0.93908592    -0.03100
Br1831     Br  0.93107793  0.08400055  0.94541332    -0.04000
Br1832     Br  0.96057387  0.99634477  0.92987919     0.00000
C1833       C  0.76657600  0.03870134  0.78578041     0.01400
C1834       C  0.77957030  0.02601761  0.79386771     0.04200
C1835       C  0.79620518  0.03276787  0.80231451    -0.11900
C1836       C  0.79952472  0.05228959  0.80358037     0.23500
C1837       C  0.78667169  0.06498297  0.79532904    -0.12400
C1838       C  0.77038489  0.05819788  0.78618890     0.04900
C1839       C  0.81568098  0.05944413  0.81490211     0.27300
C1840       C  0.81442416  0.05943349  0.83466753    -0.13100
C1841       C  0.82954607  0.06608607  0.84558146     0.05400
C1842       C  0.84529919  0.07505262  0.83682612    -0.09100
C1843       C  0.84772172  0.07209742  0.81711979     0.06200
C1844       C  0.83266607  0.06497207  0.80619261    -0.13400
Br1845     Br  0.79121131  0.09169595  0.79704252    -0.05500
Br1846     Br  0.77471728  0.99932283  0.79327360     0.00100
Br1847     Br  0.82892767  0.06097860  0.87239396     0.00600
Br1848     Br  0.83529862  0.06230382  0.77924421    -0.03800
Br1849     Br  0.75281300  0.07569262  0.77506984     0.00700
Br1850     Br  0.81455831  0.01531684  0.81220809    -0.03100
Br1851     Br  0.79162075  0.05064800  0.84684416    -0.04000
Br1852     Br  0.87240512  0.07283019  0.80555077     0.00000
C1853       C  0.07045944  0.88872154  0.89018820     0.01400
C1854       C  0.07440640  0.90833126  0.89075770     0.04200
C1855       C  0.06443594  0.92023155  0.90311023    -0.11900
C1856       C  0.05077849  0.91279089  0.91539917     0.23500
C1857       C  0.04677440  0.89344641  0.91513708    -0.12400
C1858       C  0.05657580  0.88143565  0.90273619     0.04900
C1859       C  0.04185271  0.92519865  0.92968327     0.27300
C1860       C  0.05042605  0.92738699  0.94738894    -0.13100
C1861       C  0.04298485  0.94018659  0.96055921     0.05400
C1862       C  0.02701066  0.95131619  0.95597933    -0.09100
C1863       C  0.01838038  0.94881398  0.93815215     0.06200
C1864       C  0.02559207  0.93558234  0.92523838    -0.13400
Br1865     Br  0.02810798  0.88348083  0.93235404    -0.05500
Br1866     Br  0.09333650  0.91977960  0.87512778     0.00100
Br1867     Br  0.05486195  0.94184013  0.98492119     0.00600
Br1868     Br  0.01356394  0.93187369  0.90113224    -0.03800
Br1869     Br  0.05207628  0.85478166  0.90488371     0.00700
Br1870     Br  0.06955012  0.94699146  0.90355965    -0.03100
Br1871     Br  0.07274088  0.91293562  0.95332675    -0.04000
Br1872     Br  0.99781136  0.96454623  0.93030098     0.00000
C1873       C  0.88507874  0.90090428  0.07534217     0.01400
C1874       C  0.88546140  0.91996862  0.08111638     0.04200
C1875       C  0.89898522  0.93249171  0.07355563    -0.11900
C1876       C  0.91175594  0.92629081  0.05967823     0.23500
C1877       C  0.91143670  0.90739017  0.05387262    -0.12400
C1878       C  0.89872525  0.89462659  0.06217990     0.04900
C1879       C  0.92597136  0.93934548  0.05143235     0.27300
C1880       C  0.92075483  0.95210243  0.03711249    -0.13100
C1881       C  0.93453041  0.96338730  0.02828249     0.05400
C1882       C  0.95367595  0.96161603  0.03339298    -0.09100
C1883       C  0.95884979  0.94901658  0.04792765     0.06200
C1884       C  0.94498648  0.93812402  0.05709088    -0.13400
Br1885     Br  0.92857700  0.89899138  0.03440583    -0.05500
Br1886     Br  0.86751885  0.92942803  0.09909496     0.00100
Br1887     Br  0.92697085  0.98194787  0.00985609     0.00600
Br1888     Br  0.95198755  0.92133164  0.07735652    -0.03800
Br1889     Br  0.90177180  0.86825357  0.05684725     0.00700
Br1890     Br  0.90026059  0.95818291  0.08228588    -0.03100
Br1891     Br  0.89472156  0.95394013  0.02945225    -0.04000
Br1892     Br  0.98504290  0.94588734  0.05472262     0.00000
C1893       C  0.92491143  0.12256064  0.10292281     0.01400
C1894       C  0.93768503  0.10877996  0.10970710     0.04200
C1895       C  0.94709937  0.09669068  0.09713618    -0.11900
C1896       C  0.94400364  0.09813798  0.07762420     0.23500
C1897       C  0.93142388  0.11180187  0.07067363    -0.12400
C1898       C  0.92195892  0.12400378  0.08322951     0.04900
C1899       C  0.95386803  0.08492407  0.06464407     0.27300
C1900       C  0.97156105  0.08974654  0.05689272    -0.13100
C1901       C  0.98175119  0.07652346  0.04611897     0.05400
C1902       C  0.97445256  0.05825491  0.04334480    -0.09100
C1903       C  0.95660244  0.05352908  0.05097711     0.06200
C1904       C  0.94629861  0.06688388  0.06140827    -0.13400
Br1905     Br  0.92710999  0.11352890  0.04387509    -0.05500
Br1906     Br  0.94156539  0.10505654  0.13628589     0.00100
Br1907     Br  0.00621991  0.08309932  0.03619919     0.00600
Br1908     Br  0.92186725  0.06045266  0.07164367    -0.03800
Br1909     Br  0.90557845  0.14304036  0.07308122     0.00700
Br1910     Br  0.96408235  0.07763396  0.10661978    -0.03100
Br1911     Br  0.98206945  0.11430911  0.06171545    -0.04000
Br1912     Br  0.94593938  0.02881824  0.04691227     0.00000
C1913       C  0.11104928  0.93711370  0.12290364     0.01400
C1914       C  0.09128837  0.93447627  0.12299795     0.04200
C1915       C  0.07982414  0.94451850  0.11034344    -0.11900
C1916       C  0.08800282  0.95679381  0.09705344     0.23500
C1917       C  0.10759908  0.95993685  0.09717463    -0.12400
C1918       C  0.11911347  0.95038861  0.11023823     0.04900
C1919       C  0.07602573  0.96521168  0.08211934     0.27300
C1920       C  0.07043749  0.95408882  0.06669555    -0.13100
C1921       C  0.05766325  0.96126574  0.05339142     0.05400
C1922       C  0.05131694  0.98002831  0.05472184    -0.09100
C1923       C  0.05733293  0.99134458  0.06990507     0.06200
C1924       C  0.06937841  0.98381182  0.08377640    -0.13400
Br1925     Br  0.11870180  0.97649124  0.07858202    -0.05500
Br1926     Br  0.07952820  0.91717030  0.14031507     0.00100
Br1927     Br  0.04751425  0.94471598  0.03446229     0.00600
Br1928     Br  0.07653698  0.99875584  0.10526992    -0.03800
Br1929     Br  0.14614050  0.95395906  0.10884379     0.00700
Br1930     Br  0.05276584  0.94120993  0.11079448    -0.03100
Br1931     Br  0.08015445  0.92885581  0.06395954    -0.04000
Br1932     Br  0.04953545  0.01729927  0.07148488     0.00000
C1933       C  0.10518924  0.15784337  0.88471278     0.01400
C1934       C  0.09308842  0.17005621  0.89492866     0.04200
C1935       C  0.07896428  0.18028538  0.88557951    -0.11900
C1936       C  0.07630845  0.17797243  0.86611399     0.23500
C1937       C  0.08677073  0.16427471  0.85630439    -0.12400
C1938       C  0.10107290  0.15405622  0.86559654     0.04900
C1939       C  0.06319607  0.19062392  0.85583839     0.27300
C1940       C  0.04385107  0.18623768  0.85456760    -0.13100
C1941       C  0.03163146  0.19821181  0.84451035     0.05400
C1942       C  0.03866010  0.21482746  0.83613387    -0.09100
C1943       C  0.05795328  0.21927211  0.83753344     0.06200
C1944       C  0.07019966  0.20722200  0.84740731    -0.13400
Br1945     Br  0.08181285  0.16012489  0.82989917    -0.05500
Br1946     Br  0.09499727  0.17219871  0.92202745     0.00100
Br1947     Br  0.00534113  0.19170073  0.84179358     0.00600
Br1948     Br  0.09666064  0.21331077  0.84928212    -0.03800
Br1949     Br  0.11475197  0.13519424  0.85181007     0.00700
Br1950     Br  0.06360226  0.19805823  0.89926803    -0.03100
Br1951     Br  0.03423258  0.16380247  0.86657567    -0.04000
Br1952     Br  0.06771183  0.24138158  0.82501556     0.00000
C1953       C  0.05954218  0.04727004  0.97708834     0.01400
C1954       C  0.06935742  0.04151162  0.96072762     0.04200
C1955       C  0.08313338  0.05332285  0.95263813    -0.11900
C1956       C  0.08714317  0.07092667  0.96078849     0.23500
C1957       C  0.07833465  0.07608799  0.97783745    -0.12400
C1958       C  0.06457136  0.06426818  0.98599662     0.04900
C1959       C  0.09836823  0.08500368  0.94999404     0.27300
C1960       C  0.11790226  0.08690270  0.95266773    -0.13100
C1961       C  0.12821405  0.10052989  0.94236727     0.05400
C1962       C  0.11905207  0.11202826  0.92864201    -0.09100
C1963       C  0.09939683  0.10932222  0.92566021     0.06200
C1964       C  0.08917292  0.09624951  0.93658126    -0.13400
Br1965     Br  0.08477629  0.09966279  0.98959930    -0.05500
Br1966     Br  0.06314046  0.01802078  0.94854579     0.00100
Br1967     Br  0.15509231  0.10220977  0.94680435     0.00600
Br1968     Br  0.06214092  0.09371469  0.93345883    -0.03800
Br1969     Br  0.05297797  0.07110605  0.00961562     0.00700
Br1970     Br  0.09599766  0.04588942  0.92984177    -0.03100
Br1971     Br  0.13041080  0.07044831  0.97035422    -0.04000
Br1972     Br  0.08539151  0.12337885  0.90722686     0.00000
C1973       C  0.16230236  0.17056560  0.92357274     0.01400
C1974       C  0.15880625  0.17672068  0.94247096     0.04200
C1975       C  0.17082344  0.19001727  0.95107244    -0.11900
C1976       C  0.18473143  0.19930390  0.94045266     0.23500
C1977       C  0.18661906  0.19538103  0.92120966    -0.12400
C1978       C  0.17510075  0.18171275  0.91267125     0.04900
C1979       C  0.19554627  0.21519097  0.94870012     0.27300
C1980       C  0.18794931  0.23348979  0.94817594    -0.13100
C1981       C  0.19851135  0.24882056  0.95491563     0.05400
C1982       C  0.21655476  0.24588351  0.96289153    -0.09100
C1983       C  0.22440007  0.22755180  0.96275974     0.06200
C1984       C  0.21382444  0.21227182  0.95579221    -0.13400
Br1985     Br  0.20451876  0.20975337  0.90634250    -0.05500
Br1986     Br  0.13516938  0.17210641  0.95537593     0.00100
Br1987     Br  0.18867426  0.27400693  0.95177846     0.00600
Br1988     Br  0.22413133  0.18714648  0.95611392    -0.03800
Br1989     Br  0.17475625  0.18180590  0.88556379     0.00700
Br1990     Br  0.16763508  0.19656209  0.97732359    -0.03100
Br1991     Br  0.16294034  0.23748024  0.93817839    -0.04000
Br1992     Br  0.24946877  0.22293804  0.97221366     0.00000
C1993       C  0.34073591  0.08807647  0.67119372     0.01400
C1994       C  0.34260188  0.06861448  0.67559116     0.04200
C1995       C  0.32748812  0.05869270  0.68398289    -0.11900
C1996       C  0.31161675  0.06843939  0.69072656     0.23500
C1997       C  0.31142625  0.08816370  0.69001667    -0.12400
C1998       C  0.32577872  0.09798320  0.68036719     0.04900
C1999       C  0.29543257  0.05823156  0.69945389     0.27300
C2000       C  0.27868259  0.05558848  0.68914250    -0.13100
C2001       C  0.26268226  0.04753278  0.69783668     0.05400
C2002       C  0.26353009  0.04136509  0.71684564    -0.09100
C2003       C  0.28058738  0.04375198  0.72701676     0.06200
C2004       C  0.29627418  0.05248414  0.71843430    -0.13400
Br2005     Br  0.29109670  0.10164017  0.70222367    -0.05500
Br2006     Br  0.36685141  0.05636216  0.67546926     0.00100
Br2007     Br  0.23934232  0.04644770  0.68383407     0.00600
Br2008     Br  0.31888650  0.05719257  0.73283031    -0.03800
Br2009     Br  0.32431446  0.12506364  0.68049885     0.00700
Br2010     Br  0.32849138  0.03164959  0.68631892    -0.03100
Br2011     Br  0.27766247  0.06351364  0.66309136    -0.04000
Br2012     Br  0.28315910  0.03457429  0.75256329     0.00000
C2013       C  0.15793351  0.11715913  0.87502933     0.01400
C2014       C  0.16473638  0.12490234  0.85788619     0.04200
C2015       C  0.17283542  0.11326346  0.84400444    -0.11900
C2016       C  0.17375951  0.09368044  0.84678182     0.23500
C2017       C  0.16694057  0.08581759  0.86370793    -0.12400
C2018       C  0.15906715  0.09746032  0.87774103     0.04900
C2019       C  0.18002101  0.08117418  0.83114877     0.27300
C2020       C  0.16737211  0.07689651  0.81653783    -0.13100
C2021       C  0.17287313  0.06494442  0.80172023     0.05400
C2022       C  0.19086539  0.05606467  0.80194344    -0.09100
C2023       C  0.20330152  0.06001999  0.81710721     0.06200
C2024       C  0.19815147  0.07312213  0.83113899    -0.13400
Br2025     Br  0.16805241  0.05888735  0.86737911    -0.05500
Br2026     Br  0.16156354  0.15117563  0.85226305     0.00100
Br2027     Br  0.15534440  0.06158720  0.78115799     0.00600
Br2028     Br  0.21589118  0.08016938  0.85048333    -0.03800
Br2029     Br  0.14985180  0.08598793  0.90046843     0.00700
Br2030     Br  0.18234027  0.12400647  0.82080396    -0.03100
Br2031     Br  0.14217234  0.08733202  0.81712287    -0.04000
Br2032     Br  0.22665457  0.04635782  0.82013476     0.00000
C2033       C  0.16445688  0.96244030  0.78958820     0.01400
C2034       C  0.15737605  0.96877658  0.80708481     0.04200
C2035       C  0.14892964  0.95589867  0.81974769    -0.11900
C2036       C  0.14778020  0.93665497  0.81507281     0.23500
C2037       C  0.15535906  0.93027342  0.79788503    -0.12400
C2038       C  0.16336003  0.94312558  0.78505959     0.04900
C2039       C  0.13688736  0.92328279  0.82704257     0.27300
C2040       C  0.14577834  0.91258803  0.84121082    -0.13100
C2041       C  0.13577574  0.89815936  0.85066200     0.05400
C2042       C  0.11681500  0.89425035  0.84579526    -0.09100
C2043       C  0.10766328  0.90596773  0.83238073     0.06200
C2044       C  0.11773096  0.92024549  0.82301499    -0.13400
Br2045     Br  0.15480968  0.90375622  0.79201733    -0.05500
Br2046     Br  0.16007868  0.99484739  0.81412376     0.00100
Br2047     Br  0.14854309  0.88360363  0.86966901     0.00600
Br2048     Br  0.10541021  0.93553507  0.80414253    -0.03800
Br2049     Br  0.17218704  0.93426940  0.76086770     0.00700
Br2050     Br  0.13913042  0.96439918  0.84362644    -0.03100
Br2051     Br  0.17188791  0.91742031  0.84709505    -0.04000
Br2052     Br  0.08087038  0.90368942  0.82753585     0.00000
C2053       C  0.77702248  0.27533975  0.96274009     0.01400
C2054       C  0.79694829  0.27852884  0.96378429     0.04200
C2055       C  0.80493541  0.29501850  0.95613485    -0.11900
C2056       C  0.79357655  0.30832746  0.94701776     0.23500
C2057       C  0.77404100  0.30557181  0.94582984    -0.12400
C2058       C  0.76566421  0.28927650  0.95356654     0.04900
C2059       C  0.80262490  0.32425033  0.93695959     0.27300
C2060       C  0.80554331  0.34162045  0.94594842    -0.13100
C2061       C  0.81616035  0.35577906  0.93687270     0.05400
C2062       C  0.82505531  0.35200174  0.91938240    -0.09100
C2063       C  0.81832977  0.33628240  0.90894774     0.06200
C2064       C  0.80824249  0.32193080  0.91812117    -0.13400
Br2065     Br  0.75893164  0.32428912  0.93299728    -0.05500
Br2066     Br  0.81448380  0.26074898  0.97488849     0.00100
Br2067     Br  0.81420719  0.38108634  0.94618570     0.00600
Br2068     Br  0.80302387  0.29856770  0.90525664    -0.03800
Br2069     Br  0.73861468  0.28685447  0.95042691     0.00700
Br2070     Br  0.83184631  0.29951279  0.95762161    -0.03100
Br2071     Br  0.79519154  0.34579166  0.97075092    -0.04000
Br2072     Br  0.82171769  0.33453745  0.88191395     0.00000
C2073       C  0.87185342  0.16356190  0.10466298     0.01400
C2074       C  0.87611288  0.17977833  0.09369329     0.04200
C2075       C  0.86226136  0.18817416  0.08221144    -0.11900
C2076       C  0.84403200  0.18048464  0.08132066     0.23500
C2077       C  0.83965352  0.16426445  0.09182676    -0.12400
C2078       C  0.85352062  0.15556843  0.10310844     0.04900
C2079       C  0.82982727  0.18875152  0.06832379     0.27300
C2080       C  0.81920412  0.20459687  0.07377167    -0.13100
C2081       C  0.80607501  0.21258097  0.06120562     0.05400
C2082       C  0.80310618  0.20439182  0.04335606    -0.09100
C2083       C  0.81356956  0.18834662  0.03803366     0.06200
C2084       C  0.82706022  0.18072517  0.05039200    -0.13400
Br2085     Br  0.81434510  0.15412187  0.09069929    -0.05500
Br2086     Br  0.90137314  0.18975258  0.09255435     0.00100
Br2087     Br  0.79252915  0.23504358  0.06823603     0.00600
Br2088     Br  0.84154651  0.15896132  0.04296999    -0.03800
Br2089     Br  0.84659036  0.13265364  0.11579547     0.00700
Br2090     Br  0.86822745  0.21016152  0.06724598    -0.03100
Br2091     Br  0.82233185  0.21498459  0.09866312    -0.04000
Br2092     Br  0.80850917  0.17582904  0.01440438     0.00000
C2093       C  0.84883882  0.12424471  0.88854528     0.01400
C2094       C  0.85586588  0.12770618  0.90709917     0.04200
C2095       C  0.84505817  0.13828424  0.92011118    -0.11900
C2096       C  0.82676897  0.14430865  0.91543922     0.23500
C2097       C  0.81996021  0.14144280  0.89713076    -0.12400
C2098       C  0.83143259  0.13292928  0.88343686     0.04900
C2099       C  0.81483737  0.15458190  0.92931914     0.27300
C2100       C  0.80449953  0.14466108  0.94313906    -0.13100
C2101       C  0.79224127  0.15436848  0.95544480     0.05400
C2102       C  0.78959101  0.17402584  0.95339286    -0.09100
C2103       C  0.79955198  0.18374633  0.93900883     0.06200
C2104       C  0.81264469  0.17419245  0.92761240    -0.13400
Br2105     Br  0.79451597  0.14902521  0.89089488    -0.05500
Br2106     Br  0.87979558  0.11834571  0.91596598     0.00100
Br2107     Br  0.77981386  0.14061223  0.97542852     0.00600
Br2108     Br  0.82765992  0.18796155  0.90946561    -0.03800
Br2109     Br  0.82361315  0.13568947  0.85745294     0.00700
Br2110     Br  0.85511660  0.14472064  0.94457784    -0.03100
Br2111     Br  0.80703310  0.11767068  0.94493099    -0.04000
Br2112     Br  0.79428508  0.20990751  0.93354973     0.00000
C2113       C  0.04571581  0.81266861  0.19807817     0.01400
C2114       C  0.06383722  0.81506138  0.20602687     0.04200
C2115       C  0.07588382  0.82937673  0.19928443    -0.11900
C2116       C  0.06991206  0.84133091  0.18460207     0.23500
C2117       C  0.05175297  0.83924950  0.17691669    -0.12400
C2118       C  0.03975523  0.82485405  0.18344681     0.04900
C2119       C  0.08305220  0.85544824  0.17643913     0.27300
C2120       C  0.08472124  0.87336311  0.18457262    -0.13100
C2121       C  0.09711185  0.88673856  0.17669348     0.05400
C2122       C  0.10797327  0.88230545  0.16044820    -0.09100
C2123       C  0.10526261  0.86459150  0.15171234     0.06200
C2124       C  0.09326086  0.85110071  0.16000929    -0.13400
Br2125     Br  0.04360307  0.85594789  0.15700629    -0.05500
Br2126     Br  0.07220815  0.79895881  0.22629532     0.00100
Br2127     Br  0.09777298  0.91155065  0.18765206     0.00600
Br2128     Br  0.09094959  0.82628675  0.14913878    -0.03800
Br2129     Br  0.01585311  0.82094249  0.17097927     0.00700
Br2130     Br  0.10075988  0.83252532  0.20984072    -0.03100
Br2131     Br  0.06984489  0.87946762  0.20655967    -0.04000
Br2132     Br  0.11750239  0.85815308  0.12838272     0.00000
C2133       C  0.89323864  0.62779548  0.15969843     0.01400
C2134       C  0.90551846  0.62312902  0.17493881     0.04200
C2135       C  0.91683334  0.63699958  0.18356388    -0.11900
C2136       C  0.91683653  0.65555234  0.17673646     0.23500
C2137       C  0.90596711  0.66008355  0.16081975    -0.12400
C2138       C  0.89485563  0.64624498  0.15182207     0.04900
C2139       C  0.93004881  0.66982058  0.18472293     0.27300
C2140       C  0.92471689  0.68116474  0.20012371    -0.13100
C2141       C  0.93679686  0.69564153  0.20654316     0.05400
C2142       C  0.95426167  0.69894420  0.19743307    -0.09100
C2143       C  0.95992230  0.68681955  0.18261278     0.06200
C2144       C  0.94780528  0.67249720  0.17622591    -0.13400
Br2145     Br  0.90647834  0.68567694  0.15142214    -0.05500
Br2146     Br  0.90917417  0.59732570  0.18285295     0.00100
Br2147     Br  0.92874443  0.71154894  0.22702617     0.00600
Br2148     Br  0.95520212  0.65681298  0.15525424    -0.03800
Br2149     Br  0.88409910  0.65330384  0.12790853     0.00700
Br2150     Br  0.93262797  0.63068872  0.20482293    -0.03100
Br2151     Br  0.90042541  0.67731939  0.21178011    -0.04000
Br2152     Br  0.98456973  0.68927625  0.17112687     0.00000
C2153       C  0.88713039  0.85202298  0.11905388     0.01400
C2154       C  0.88152794  0.83522205  0.12846386     0.04200
C2155       C  0.89500699  0.82387819  0.13735195    -0.11900
C2156       C  0.91355596  0.83047023  0.13954170     0.23500
C2157       C  0.91860529  0.84837908  0.13265530    -0.12400
C2158       C  0.90579010  0.85874881  0.12159723     0.04900
C2159       C  0.92770533  0.81849261  0.14908751     0.27300
C2160       C  0.92648976  0.81549392  0.16867117    -0.13100
C2161       C  0.93913716  0.80319752  0.17755211     0.05400
C2162       C  0.95411010  0.79507969  0.16716633    -0.09100
C2163       C  0.95550827  0.79833372  0.14758410     0.06200
C2164       C  0.94200655  0.80962996  0.13849365    -0.13400
Br2165     Br  0.94328359  0.85845907  0.13828818    -0.05500
Br2166     Br  0.85522444  0.82804941  0.13076698     0.00100
Br2167     Br  0.93499359  0.79665726  0.20375511     0.00600
Br2168     Br  0.94306068  0.81298216  0.11148434    -0.03800
Br2169     Br  0.91482214  0.88124922  0.10932176     0.00700
Br2170     Br  0.88816794  0.79891053  0.14590011    -0.03100
Br2171     Br  0.90766567  0.82854185  0.18341699    -0.04000
Br2172     Br  0.97634703  0.78825919  0.13325973     0.00000
C2173       C  0.10744032  0.66032660  0.12013607     0.01400
C2174       C  0.08857575  0.65378037  0.11901141     0.04200
C2175       C  0.07402221  0.66369638  0.12811924    -0.11900
C2176       C  0.07832190  0.67949517  0.13915002     0.23500
C2177       C  0.09716471  0.68489273  0.14195834    -0.12400
C2178       C  0.11169392  0.67557348  0.13234139     0.04900
C2179       C  0.06313977  0.69120047  0.14716561     0.27300
C2180       C  0.05830842  0.70825726  0.13819874    -0.13100
C2181       C  0.04610174  0.72095640  0.14716860     0.05400
C2182       C  0.03870049  0.71649127  0.16503560    -0.09100
C2183       C  0.04271471  0.69895718  0.17352543     0.06200
C2184       C  0.05493863  0.68630172  0.16456835    -0.13400
Br2185     Br  0.10288341  0.70562392  0.15862260    -0.05500
Br2186     Br  0.08188250  0.63181609  0.10475153     0.00100
Br2187     Br  0.04085078  0.74506198  0.13576313     0.00600
Br2188     Br  0.06116435  0.66266297  0.17647967    -0.03800
Br2189     Br  0.13740400  0.68389141  0.13645917     0.00700
Br2190     Br  0.04797909  0.65636321  0.12481333    -0.03100
Br2191     Br  0.06927652  0.71456658  0.11406434    -0.04000
Br2192     Br  0.03170003  0.69236253  0.19762248     0.00000
C2193       C  0.65291705  0.12439940  0.10493434     0.01400
C2194       C  0.64803786  0.12207552  0.08569717     0.04200
C2195       C  0.65903762  0.13062608  0.07151916    -0.11900
C2196       C  0.67464795  0.14174476  0.07640133     0.23500
C2197       C  0.67891452  0.14506691  0.09540962    -0.12400
C2198       C  0.66784128  0.13684622  0.10961650     0.04900
C2199       C  0.68593037  0.15106826  0.06158328     0.27300
C2200       C  0.70206486  0.14220760  0.05415661    -0.13100
C2201       C  0.71368304  0.15189852  0.04128498     0.05400
C2202       C  0.70924867  0.17056896  0.03618153    -0.09100
C2203       C  0.69246463  0.17896587  0.04284690     0.06200
C2204       C  0.68085348  0.16921329  0.05554544    -0.13400
Br2205     Br  0.70019015  0.16080378  0.10189010    -0.05500
Br2206     Br  0.62651826  0.10755033  0.07800866     0.00100
Br2207     Br  0.73608979  0.13993414  0.03157370     0.00600
Br2208     Br  0.65819029  0.18084200  0.06515536    -0.03800
Br2209     Br  0.67245602  0.14413025  0.13538060     0.00700
Br2210     Br  0.65310485  0.12699611  0.04519632    -0.03100
Br2211     Br  0.70849572  0.11708990  0.06225585    -0.04000
Br2212     Br  0.68506718  0.20378299  0.03438725     0.00000
C2213       C  0.54476076  0.03019857  0.04822303     0.01400
C2214       C  0.54357788  0.02714080  0.06783029     0.04200
C2215       C  0.55632610  0.03622925  0.08001034    -0.11900
C2216       C  0.56973541  0.04902200  0.07269564     0.23500
C2217       C  0.57116752  0.05170302  0.05302235    -0.12400
C2218       C  0.55911762  0.04182310  0.04082496     0.04900
C2219       C  0.58234190  0.05957241  0.08567600     0.27300
C2220       C  0.57522968  0.07458120  0.09652962    -0.13100
C2221       C  0.58699919  0.08399704  0.10946750     0.05400
C2222       C  0.60634442  0.07931828  0.11071335    -0.09100
C2223       C  0.61363668  0.06532385  0.09851935     0.06200
C2224       C  0.60153158  0.05479689  0.08694629    -0.13400
Br2225     Br  0.58922070  0.06934577  0.04273445    -0.05500
Br2226     Br  0.52395360  0.01129670  0.07809333     0.00100
Br2227     Br  0.57617742  0.10295308  0.12550263     0.00600
Br2228     Br  0.61127155  0.03369179  0.07281911    -0.03800
Br2229     Br  0.56278545  0.04351287  0.01387157     0.00700
Br2230     Br  0.55541342  0.03127375  0.10676304    -0.03100
Br2231     Br  0.54933124  0.08236986  0.09339331    -0.04000
Br2232     Br  0.64039183  0.06234213  0.09506671     0.00000
C2233       C  0.66601026  0.05117733  0.79613389     0.01400
C2234       C  0.64602643  0.05127060  0.79659008     0.04200
C2235       C  0.63638915  0.06426408  0.80805308    -0.11900
C2236       C  0.64652855  0.07640600  0.81999148     0.23500
C2237       C  0.66635704  0.07586478  0.82017129    -0.12400
C2238       C  0.67609413  0.06391684  0.80776380     0.04900
C2239       C  0.63644778  0.09106437  0.83092407     0.27300
C2240       C  0.63685262  0.10974884  0.82450764    -0.13100
C2241       C  0.62760600  0.12383311  0.83473825     0.05400
C2242       C  0.61557201  0.11912230  0.85008646    -0.09100
C2243       C  0.61559434  0.10026129  0.85678506     0.06200
C2244       C  0.62659617  0.08649800  0.84756759    -0.13400
Br2245     Br  0.68016291  0.09202918  0.83716651    -0.05500
Br2246     Br  0.63148571  0.03337302  0.78217337     0.00100
Br2247     Br  0.63343094  0.14961110  0.82846923     0.00600
Br2248     Br  0.62819333  0.06121791  0.85749435    -0.03800
Br2249     Br  0.70319401  0.06667679  0.80573430     0.00700
Br2250     Br  0.60922341  0.06600387  0.80695233    -0.03100
Br2251     Br  0.64974012  0.11601960  0.80123799    -0.04000
Br2252     Br  0.60039448  0.09237237  0.87789746     0.00000
C2253       C  0.61793646  0.16702466  0.89516357     0.01400
C2254       C  0.61302316  0.18258129  0.90675375     0.04200
C2255       C  0.62677898  0.19140450  0.91803077    -0.11900
C2256       C  0.64529717  0.18439480  0.91851169     0.23500
C2257       C  0.65007730  0.16849167  0.90777961    -0.12400
C2258       C  0.63662566  0.15999105  0.89595628     0.04900
C2259       C  0.65965757  0.19291990  0.93112313     0.27300
C2260       C  0.67198509  0.20701282  0.92436610    -0.13100
C2261       C  0.68706838  0.21333101  0.93567228     0.05400
C2262       C  0.68999260  0.20533497  0.95366270    -0.09100
C2263       C  0.67711942  0.19176798  0.96064604     0.06200
C2264       C  0.66199677  0.18565269  0.94942979    -0.13400
Br2265     Br  0.67535320  0.15841987  0.90938695    -0.05500
Br2266     Br  0.58727036  0.19143312  0.90836949     0.00100
Br2267     Br  0.70448080  0.23184232  0.92592610     0.00600
Br2268     Br  0.64487341  0.16658808  0.95872442    -0.03800
Br2269     Br  0.64480684  0.13943611  0.88035793     0.00700
Br2270     Br  0.62039280  0.21313577  0.93300284    -0.03100
Br2271     Br  0.66870527  0.21683733  0.89921802    -0.04000
Br2272     Br  0.68011613  0.18136556  0.98565354     0.00000
C2273       C  0.56665434  0.12423440  0.89341933     0.01400
C2274       C  0.56909137  0.12456205  0.91319976     0.04200
C2275       C  0.55952265  0.11148112  0.92479561    -0.11900
C2276       C  0.54747535  0.09789273  0.91678919     0.23500
C2277       C  0.54512041  0.09737048  0.89710702    -0.12400
C2278       C  0.55485939  0.11024323  0.88546596     0.04900
C2279       C  0.53833309  0.08335303  0.92896768     0.27300
C2280       C  0.54889283  0.06774493  0.93524303    -0.13100
C2281       C  0.54069262  0.05441166  0.94747572     0.05400
C2282       C  0.52162277  0.05612263  0.95286996    -0.09100
C2283       C  0.51085507  0.07139805  0.94617018     0.06200
C2284       C  0.51924764  0.08510355  0.93440191    -0.13400
Br2285     Br  0.52902580  0.07842050  0.88608870    -0.05500
Br2286     Br  0.58557140  0.14270306  0.92472255     0.00100
Br2287     Br  0.55592856  0.03435079  0.95774372     0.00600
Br2288     Br  0.50467511  0.10631389  0.92573854    -0.03800
Br2289     Br  0.55373882  0.10688969  0.85855452     0.00700
Br2290     Br  0.56304790  0.11190620  0.95178386    -0.03100
Br2291     Br  0.57461706  0.06457374  0.92689956    -0.04000
Br2292     Br  0.48449846  0.07319642  0.95272652     0.00000
C2293       C  0.57293444  0.17416752  0.83983552     0.01400
C2294       C  0.58433139  0.18898231  0.83181115     0.04200
C2295       C  0.57712343  0.20089368  0.81767603    -0.11900
C2296       C  0.55967011  0.19705790  0.80944204     0.23500
C2297       C  0.54902687  0.18158905  0.81558346    -0.12400
C2298       C  0.55561304  0.16998950  0.83035112     0.04900
C2299       C  0.55345037  0.20802766  0.79277968     0.27300
C2300       C  0.54220718  0.22414197  0.79514179    -0.13100
C2301       C  0.53513847  0.23368441  0.77927172     0.05400
C2302       C  0.53955709  0.22723572  0.76095998    -0.09100
C2303       C  0.55161100  0.21162695  0.75863356     0.06200
C2304       C  0.55851481  0.20202032  0.77453491    -0.13400
Br2305     Br  0.52568783  0.17585987  0.80262313    -0.05500
Br2306     Br  0.61111127  0.19196419  0.83649487     0.00100
Br2307     Br  0.51846383  0.25486220  0.78280374     0.00600
Br2308     Br  0.57488866  0.18055032  0.77143965    -0.03800
Br2309     Br  0.54172971  0.14699550  0.83422375     0.00700
Br2310     Br  0.59160630  0.22218026  0.80847112    -0.03100
Br2311     Br  0.53643580  0.23293443  0.82020547    -0.04000
Br2312     Br  0.55920088  0.20375917  0.73370243     0.00000
C2313       C  0.37893137  0.11395746  0.06975877     0.01400
C2314       C  0.39719139  0.12041915  0.06503571     0.04200
C2315       C  0.41002339  0.10834152  0.05590767    -0.11900
C2316       C  0.40447358  0.08996177  0.05091420     0.23500
C2317       C  0.38557182  0.08437327  0.05363547    -0.12400
C2318       C  0.37258143  0.09682163  0.06198543     0.04900
C2319       C  0.41832270  0.07678119  0.04225718     0.27300
C2320       C  0.41863857  0.07397301  0.02256208    -0.13100
C2321       C  0.43153303  0.06118815  0.01451025     0.05400
C2322       C  0.44451502  0.05156165  0.02604197    -0.09100
C2323       C  0.44454851  0.05476866  0.04565795     0.06200
C2324       C  0.43128615  0.06709134  0.05377725    -0.13400
Br2325     Br  0.37755092  0.05953901  0.04622003    -0.05500
Br2326     Br  0.40371674  0.14659441  0.06832364     0.00100
Br2327     Br  0.43190151  0.05728188  0.98761740     0.00600
Br2328     Br  0.43067973  0.07060971  0.08074373    -0.03800
Br2329     Br  0.34591455  0.09144994  0.06041634     0.00700
Br2330     Br  0.43512163  0.11702596  0.04989456    -0.03100
Br2331     Br  0.40165241  0.08798495  0.00663100    -0.04000
Br2332     Br  0.46275539  0.04214631  0.06142728     0.00000
C2333       C  0.33088034  0.16625880  0.07420477     0.01400
C2334       C  0.33661440  0.17364626  0.05625583     0.04200
C2335       C  0.32507174  0.18639054  0.04635762    -0.11900
C2336       C  0.30920592  0.19425674  0.05508880     0.23500
C2337       C  0.30437756  0.18881849  0.07348714    -0.12400
C2338       C  0.31535293  0.17543673  0.08325068     0.04900
C2339       C  0.29950485  0.21055645  0.04627894     0.27300
C2340       C  0.30776253  0.22861786  0.04742927    -0.13100
C2341       C  0.29840931  0.24427113  0.03975981     0.05400
C2342       C  0.28067119  0.24198475  0.03123699    -0.09100
C2343       C  0.27195855  0.22418293  0.03094570     0.06200
C2344       C  0.28161649  0.20835498  0.03792998    -0.13400
Br2345     Br  0.28318424  0.20096019  0.08572678    -0.05500
Br2346     Br  0.36190884  0.17052347  0.04635820     0.00100
Br2347     Br  0.30948405  0.26905474  0.04150495     0.00600
Br2348     Br  0.27042528  0.18368367  0.03614081    -0.03800
Br2349     Br  0.31075566  0.17384088  0.10999331     0.00700
Br2350     Br  0.33145795  0.19408691  0.02094465    -0.03100
Br2351     Br  0.33174676  0.23198990  0.05983312    -0.04000
Br2352     Br  0.24633432  0.22181002  0.02227612     0.00000
C2353       C  0.46912688  0.95430259  0.04709987     0.01400
C2354       C  0.45609602  0.95967401  0.06118532     0.04200
C2355       C  0.44900384  0.94619965  0.07402402    -0.11900
C2356       C  0.45461514  0.92719979  0.07270482     0.23500
C2357       C  0.46754243  0.92181779  0.05858381    -0.12400
C2358       C  0.47478926  0.93529636  0.04584943     0.04900
C2359       C  0.44606535  0.91269696  0.08540963     0.27300
C2360       C  0.45309314  0.90978301  0.10374055    -0.13100
C2361       C  0.44416139  0.89687626  0.11608527     0.05400
C2362       C  0.42850149  0.88600960  0.10983076    -0.09100
C2363       C  0.42238639  0.88826071  0.09092928     0.06200
C2364       C  0.43071322  0.90189968  0.07907524    -0.13400
Br2365     Br  0.47499988  0.89580167  0.05651992    -0.05500
Br2366     Br  0.44816209  0.98558632  0.06318425     0.00100
Br2367     Br  0.45221557  0.89628795  0.14210913     0.00600
Br2368     Br  0.42079638  0.90624565  0.05407478    -0.03800
Br2369     Br  0.49155004  0.92742248  0.02589623     0.00700
Br2370     Br  0.43141068  0.95370137  0.09336792    -0.03100
Br2371     Br  0.47474604  0.92402528  0.11199616    -0.04000
Br2372     Br  0.40322056  0.87224203  0.08042278     0.00000
C2373       C  0.46179729  0.78713155  0.24063053     0.01400
C2374       C  0.46809383  0.80513829  0.23436750     0.04200
C2375       C  0.45950086  0.81396675  0.21873876    -0.11900
C2376       C  0.44547717  0.80459311  0.20836859     0.23500
C2377       C  0.43945529  0.78659023  0.21415559    -0.12400
C2378       C  0.44682394  0.77832003  0.23067799     0.04900
C2379       C  0.43604186  0.81438930  0.19230778     0.27300
C2380       C  0.41822039  0.82250239  0.19496804    -0.13100
C2381       C  0.40934939  0.83200231  0.18003807     0.05400
C2382       C  0.41937016  0.83646183  0.16321047    -0.09100
C2383       C  0.43595205  0.82569433  0.15959998     0.06200
C2384       C  0.44433227  0.81498200  0.17424786    -0.13400
Br2385     Br  0.42095408  0.77328810  0.19930640    -0.05500
Br2386     Br  0.48890049  0.81802382  0.24629729     0.00100
Br2387     Br  0.38247185  0.83481395  0.18167438     0.00600
Br2388     Br  0.46677375  0.80035992  0.16959918    -0.03800
Br2389     Br  0.43473412  0.75585172  0.24030985     0.00700
Br2390     Br  0.46661838  0.83925481  0.21154032    -0.03100
Br2391     Br  0.40580554  0.82055303  0.21919362    -0.04000
Br2392     Br  0.44510375  0.82172296  0.13425218     0.00000
C2393       C  0.65676137  0.89862815  0.87824087     0.01400
C2394       C  0.65009928  0.89752479  0.85947795     0.04200
C2395       C  0.65827541  0.90874558  0.84515820    -0.11900
C2396       C  0.67254714  0.92182729  0.84951230     0.23500
C2397       C  0.67845078  0.92381068  0.86834276    -0.12400
C2398       C  0.67063274  0.91232472  0.88261942     0.04900
C2399       C  0.68029212  0.93448117  0.83450837     0.27300
C2400       C  0.69556777  0.92873933  0.82312428    -0.13100
C2401       C  0.70243081  0.94060497  0.80860733     0.05400
C2402       C  0.69445605  0.95861284  0.80577961    -0.09100
C2403       C  0.67914774  0.96432212  0.81733088     0.06200
C2404       C  0.67206054  0.95224665  0.83147527    -0.13400
Br2405     Br  0.69717699  0.94253535  0.87451604    -0.05500
Br2406     Br  0.62952707  0.88119917  0.85299025     0.00100
Br2407     Br  0.72313580  0.93232657  0.79304256     0.00600
Br2408     Br  0.65079745  0.95986756  0.84672169    -0.03800
Br2409     Br  0.67786419  0.91669320  0.90846551     0.00700
Br2410     Br  0.64999833  0.90628768  0.81936150    -0.03100
Br2411     Br  0.70722002  0.90466562  0.82772823    -0.04000
Br2412     Br  0.66693535  0.98832012  0.81330675     0.00000
C2413       C  0.54853697  0.95969120  0.97518870     0.01400
C2414       C  0.54357642  0.94481006  0.96305486     0.04200
C2415       C  0.55768332  0.93339240  0.95506830    -0.11900
C2416       C  0.57686102  0.93698190  0.95891885     0.23500
C2417       C  0.58182928  0.95172768  0.97122191    -0.12400
C2418       C  0.56769183  0.96303627  0.97939179     0.04900
C2419       C  0.59170633  0.92494588  0.95027266     0.27300
C2420       C  0.59619816  0.90757329  0.95851117    -0.13100
C2421       C  0.60892440  0.89526793  0.94953900     0.05400
C2422       C  0.61815516  0.90059047  0.93242679    -0.09100
C2423       C  0.61429000  0.91875120  0.92492641     0.06200
C2424       C  0.60083276  0.93057883  0.93357569    -0.13400
Br2425     Br  0.60804459  0.95635555  0.97678584    -0.05500
Br2426     Br  0.51734635  0.93982616  0.95771242     0.00100
Br2427     Br  0.61164098  0.87067690  0.96057292     0.00600
Br2428     Br  0.59455910  0.95463269  0.92251478    -0.03800
Br2429     Br  0.57459655  0.98360794  0.99569851     0.00700
Br2430     Br  0.55077601  0.91269351  0.93891783    -0.03100
Br2431     Br  0.58432314  0.90060005  0.98212381    -0.04000
Br2432     Br  0.62784739  0.92852198  0.90347812     0.00000
C2433       C  0.45305532  0.97556416  0.94726999     0.01400
C2434       C  0.44798082  0.98513342  0.93059814     0.04200
C2435       C  0.43738448  0.97583876  0.91662749    -0.11900
C2436       C  0.43171364  0.95699098  0.91933410     0.23500
C2437       C  0.43709501  0.94732278  0.93584303    -0.12400
C2438       C  0.44777799  0.95656404  0.94974916     0.04900
C2439       C  0.41881803  0.94780324  0.90561598     0.27300
C2440       C  0.39927033  0.95075393  0.90714847    -0.13100
C2441       C  0.38679808  0.94182707  0.89462268     0.05400
C2442       C  0.39375496  0.92982430  0.88029775    -0.09100
C2443       C  0.41334620  0.92615171  0.87945624     0.06200
C2444       C  0.42584559  0.93544247  0.89180434    -0.13400
Br2445     Br  0.42948397  0.92147531  0.93948954    -0.05500
Br2446     Br  0.45475245  0.01124515  0.92735537     0.00100
Br2447     Br  0.36004825  0.94419146  0.89901022     0.00600
Br2448     Br  0.45267991  0.93128022  0.88996172    -0.03800
Br2449     Br  0.45559113  0.94303167  0.97204014     0.00700
Br2450     Br  0.43030705  0.98892405  0.89386246    -0.03100
Br2451     Br  0.38958127  0.96661419  0.92701073    -0.04000
Br2452     Br  0.42335201  0.90803866  0.86204778     0.00000
C2453       C  0.33876314  0.93083306  0.83253677     0.01400
C2454       C  0.32755041  0.92092220  0.81891964     0.04200
C2455       C  0.31358620  0.93035789  0.80836832    -0.11900
C2456       C  0.31068192  0.94969939  0.81074270     0.23500
C2457       C  0.32119819  0.95959250  0.82413988    -0.12400
C2458       C  0.33374369  0.94999135  0.83611511     0.04900
C2459       C  0.29472367  0.95916960  0.80112991     0.27300
C2460       C  0.29659436  0.96557549  0.78240484    -0.13100
C2461       C  0.28131875  0.97450622  0.77347200     0.05400
C2462       C  0.26447347  0.97768697  0.78351455    -0.09100
C2463       C  0.26261610  0.97138401  0.80223569     0.06200
C2464       C  0.27757196  0.96176544  0.81090874    -0.13400
Br2465     Br  0.31725579  0.98641288  0.82682430    -0.05500
Br2466     Br  0.32883927  0.89395026  0.81539589     0.00100
Br2467     Br  0.28322761  0.98201275  0.74738721     0.00600
Br2468     Br  0.27436379  0.95152226  0.83594909    -0.03800
Br2469     Br  0.33855657  0.96241270  0.85972986     0.00700
Br2470     Br  0.29744951  0.91672721  0.79111800    -0.03100
Br2471     Br  0.31999154  0.96187480  0.76903475    -0.04000
Br2472     Br  0.23932898  0.97552779  0.81575388     0.00000
C2473       C  0.16012367  0.67026488  0.07292859     0.01400
C2474       C  0.15168236  0.68704470  0.06584594     0.04200
C2475       C  0.16296707  0.70250546  0.06049639    -0.11900
C2476       C  0.18271811  0.70092974  0.06036772     0.23500
C2477       C  0.19109434  0.68355112  0.06466647    -0.12400
C2478       C  0.17980049  0.66804236  0.06982439     0.04900
C2479       C  0.19433492  0.71650173  0.05248636     0.27300
C2480       C  0.19683674  0.71775462  0.03281542    -0.13100
C2481       C  0.20675644  0.73300350  0.02495945     0.05400
C2482       C  0.21472159  0.74682772  0.03673357    -0.09100
C2483       C  0.21253814  0.74544018  0.05644746     0.06200
C2484       C  0.20222892  0.73033699  0.06432074    -0.13400
Br2485     Br  0.21815758  0.68097234  0.06306708    -0.05500
Br2486     Br  0.12508561  0.68831888  0.06013939     0.00100
Br2487     Br  0.20934766  0.73498547  0.99796163     0.00600
Br2488     Br  0.19848661  0.72873459  0.09119598    -0.03800
Br2489     Br  0.19087109  0.64343282  0.06775299     0.00700
Br2490     Br  0.15143637  0.72600913  0.05307463    -0.03100
Br2491     Br  0.18641648  0.69857992  0.01661588    -0.04000
Br2492     Br  0.22279638  0.76477251  0.07248323     0.00000
C2493       C  0.30225306  0.81467049  0.04824674     0.01400
C2494       C  0.31697566  0.82616745  0.04125458     0.04200
C2495       C  0.33130356  0.83249391  0.05338228    -0.11900
C2496       C  0.33137362  0.82688589  0.07243758     0.23500
C2497       C  0.31721767  0.81463794  0.07923541    -0.12400
C2498       C  0.30254875  0.80869830  0.06721804     0.04900
C2499       C  0.34596351  0.83447202  0.08542324     0.27300
C2500       C  0.36391366  0.82613675  0.08631342    -0.13100
C2501       C  0.37778428  0.83351364  0.09843095     0.05400
C2502       C  0.37370247  0.84923464  0.11008632    -0.09100
C2503       C  0.35588659  0.85807282  0.10838606     0.06200
C2504       C  0.34206186  0.85055755  0.09627686    -0.13400
Br2505     Br  0.31780891  0.80639447  0.10515161    -0.05500
Br2506     Br  0.31784673  0.83287239  0.01483812     0.00100
Br2507     Br  0.40282866  0.82276027  0.09766019     0.00600
Br2508     Br  0.31751477  0.86220491  0.09449219    -0.03800
Br2509     Br  0.28229917  0.79337861  0.07703121     0.00700
Br2510     Br  0.35062464  0.84930324  0.04406670    -0.03100
Br2511     Br  0.36940239  0.80455383  0.07075967    -0.04000
Br2512     Br  0.34980143  0.88039771  0.12240941     0.00000
C2513       C  0.19418575  0.81276432  0.95325243     0.01400
C2514       C  0.17796312  0.80161134  0.95050040     0.04200
C2515       C  0.16329816  0.80813007  0.93880854    -0.11900
C2516       C  0.16461534  0.82598952  0.93020119     0.23500
C2517       C  0.18057506  0.83736302  0.93340055    -0.12400
C2518       C  0.19537125  0.83074239  0.94481326     0.04900
C2519       C  0.14958801  0.83262464  0.91721391     0.27300
C2520       C  0.15155500  0.82977124  0.89771865    -0.13100
C2521       C  0.13786278  0.83672460  0.88518379     0.05400
C2522       C  0.12180513  0.84641115  0.89203344    -0.09100
C2523       C  0.11997617  0.84928107  0.91169190     0.06200
C2524       C  0.13379400  0.84235705  0.92420392    -0.13400
Br2525     Br  0.18197019  0.86213446  0.92223693    -0.05500
Br2526     Br  0.17601491  0.77726311  0.96244994     0.00100
Br2527     Br  0.14223755  0.83400019  0.85856564     0.00600
Br2528     Br  0.13125679  0.84612703  0.95103646    -0.03800
Br2529     Br  0.21681857  0.84678568  0.94971203     0.00700
Br2530     Br  0.14142408  0.79261636  0.93438625    -0.03100
Br2531     Br  0.17329379  0.81638076  0.88825429    -0.04000
Br2532     Br  0.09857162  0.86234135  0.92188542     0.00000
C2533       C  0.34703822  0.88540020  0.88648468     0.01400
C2534       C  0.33095185  0.87403130  0.88274449     0.04200
C2535       C  0.32127221  0.86500221  0.89752511    -0.11900
C2536       C  0.32755542  0.86694081  0.91615623     0.23500
C2537       C  0.34435543  0.87669231  0.91991429    -0.12400
C2538       C  0.35427281  0.88569056  0.90517245     0.04900
C2539       C  0.31617887  0.85886780  0.93175798     0.27300
C2540       C  0.30114792  0.86930426  0.93946233    -0.13100
C2541       C  0.28895535  0.86097449  0.95278128     0.05400
C2542       C  0.29178136  0.84212232  0.95838110    -0.09100
C2543       C  0.30764106  0.83216231  0.95155491     0.06200
C2544       C  0.31965008  0.84043353  0.93808721    -0.13400
Br2545     Br  0.35339508  0.87794838  0.94556767    -0.05500
Br2546     Br  0.32238376  0.86945079  0.85737242     0.00100
Br2547     Br  0.26779557  0.87509875  0.96234323     0.00600
Br2548     Br  0.34043879  0.82632865  0.92764810    -0.03800
Br2549     Br  0.37742928  0.89823167  0.91157984     0.00700
Br2550     Br  0.29910412  0.84997785  0.89243030    -0.03100
Br2551     Br  0.29684720  0.89477029  0.93100060    -0.04000
Br2552     Br  0.31335286  0.80733893  0.96102466     0.00000
C2553       C  0.20672666  0.84992756  0.03631632     0.01400
C2554       C  0.18700407  0.84668821  0.03575280     0.04200
C2555       C  0.17526035  0.85399674  0.04990575    -0.11900
C2556       C  0.18277334  0.86616564  0.06357708     0.23500
C2557       C  0.20189909  0.87154693  0.06260155    -0.12400
C2558       C  0.21399003  0.86323592  0.04921559     0.04900
C2559       C  0.17081793  0.87291355  0.07935467     0.27300
C2560       C  0.15761617  0.88737880  0.07645537    -0.13100
C2561       C  0.14715718  0.89445966  0.09175711     0.05400
C2562       C  0.15118270  0.88841317  0.11033170    -0.09100
C2563       C  0.16330202  0.87279263  0.11287935     0.06200
C2564       C  0.17287740  0.86494521  0.09741039    -0.13400
Br2565     Br  0.21159263  0.88977089  0.08027547    -0.05500
Br2566     Br  0.17573912  0.83288772  0.01514408     0.00100
Br2567     Br  0.12701256  0.91162568  0.08654862     0.00600
Br2568     Br  0.18919839  0.84347025  0.10091085    -0.03800
Br2569     Br  0.24046443  0.86959406  0.04954196     0.00700
Br2570     Br  0.14913903  0.84635230  0.05127159    -0.03100
Br2571     Br  0.15463742  0.89817316  0.05160886    -0.04000
Br2572     Br  0.16601069  0.86119287  0.13732147     0.00000
C2573       C  0.23751761  0.97000589  0.22232068     0.01400
C2574       C  0.22981731  0.95290869  0.22924964     0.04200
C2575       C  0.21375007  0.94503843  0.22067057    -0.11900
C2576       C  0.20593864  0.95350540  0.20449963     0.23500
C2577       C  0.21319955  0.97069789  0.19783101    -0.12400
C2578       C  0.22856828  0.97921297  0.20698659     0.04900
C2579       C  0.19109863  0.94359406  0.19361492     0.27300
C2580       C  0.19602966  0.92803841  0.18253363    -0.13100
C2581       C  0.18207661  0.91808157  0.17271780     0.05400
C2582       C  0.16358217  0.92561294  0.17080681    -0.09100
C2583       C  0.15834602  0.94020636  0.18361557     0.06200
C2584       C  0.17210316  0.94903469  0.19494144    -0.13400
Br2585     Br  0.20226991  0.98233155  0.17575968    -0.05500
Br2586     Br  0.24175047  0.93924825  0.24956631     0.00100
Br2587     Br  0.18774894  0.89217755  0.16718562     0.00600
Br2588     Br  0.16510104  0.96849035  0.21260529    -0.03800
Br2589     Br  0.23643062  0.00399789  0.19880976     0.00700
Br2590     Br  0.20248313  0.92237444  0.23077882    -0.03100
Br2591     Br  0.22208575  0.92013083  0.18096182    -0.04000
Br2592     Br  0.13237545  0.94732277  0.18770177     0.00000
C2593       C  0.30405276  0.05295071  0.19709793     0.01400
C2594       C  0.32290556  0.05931521  0.19748061     0.04200
C2595       C  0.32961293  0.07175222  0.18350615    -0.11900
C2596       C  0.31750690  0.07798344  0.16904076     0.23500
C2597       C  0.29864222  0.07162235  0.16863165    -0.12400
C2598       C  0.29198523  0.05895417  0.18251815     0.04900
C2599       C  0.32493072  0.09063911  0.15392214     0.27300
C2600       C  0.32373733  0.11029944  0.15576824    -0.13100
C2601       C  0.33133237  0.12220108  0.14169027     0.05400
C2602       C  0.34007751  0.11461835  0.12540957    -0.09100
C2603       C  0.34252296  0.09483311  0.12452523     0.06200
C2604       C  0.33441120  0.08295615  0.13831785    -0.13400
Br2605     Br  0.28201144  0.08035822  0.14901835    -0.05500
Br2606     Br  0.33983743  0.05025501  0.21676556     0.00100
Br2607     Br  0.33179438  0.14881387  0.14620733     0.00600
Br2608     Br  0.33621747  0.05592045  0.13598977    -0.03800
Br2609     Br  0.26638637  0.04987269  0.18168785     0.00700
Br2610     Br  0.35549961  0.08016160  0.18401667    -0.03100
Br2611     Br  0.31193135  0.12081617  0.17790663    -0.04000
Br2612     Br  0.35804325  0.08343406  0.10561901     0.00000
C2613       C  0.34604861  0.89907368  0.38075874     0.01400
C2614       C  0.33316438  0.89135732  0.36747284     0.04200
C2615       C  0.32609393  0.90251136  0.35255379    -0.11900
C2616       C  0.33267204  0.92102330  0.34978676     0.23500
C2617       C  0.34616395  0.92844187  0.36230038    -0.12400
C2618       C  0.35224353  0.91789198  0.37807849     0.04900
C2619       C  0.32515023  0.93285073  0.33395019     0.27300
C2620       C  0.33207391  0.93062185  0.31543532    -0.13100
C2621       C  0.32514547  0.94200477  0.30060906     0.05400
C2622       C  0.31155036  0.95615752  0.30421117    -0.09100
C2623       C  0.30459188  0.95827375  0.32279228     0.06200
C2624       C  0.31120145  0.94655059  0.33748509    -0.13400
Br2625     Br  0.35645443  0.95318521  0.35756567    -0.05500
Br2626     Br  0.32594521  0.86508993  0.36835092     0.00100
Br2627     Br  0.33392863  0.93765122  0.27523009     0.00600
Br2628     Br  0.30143537  0.94947855  0.36271775    -0.03800
Br2629     Br  0.36783828  0.93023898  0.39654027     0.00700
Br2630     Br  0.30721768  0.89247843  0.33574796    -0.03100
Br2631     Br  0.35151085  0.91224917  0.31057277    -0.04000
Br2632     Br  0.28702482  0.97817275  0.32861886     0.00000
C2633       C  0.38353452  0.89806288  0.15484715     0.01400
C2634       C  0.36845890  0.89575720  0.16778744     0.04200
C2635       C  0.36139361  0.91121921  0.17789686    -0.11900
C2636       C  0.36903518  0.92924861  0.17499019     0.23500
C2637       C  0.38301078  0.93198693  0.16119116    -0.12400
C2638       C  0.38992344  0.91655159  0.15083272     0.04900
C2639       C  0.36168046  0.94533821  0.18605565     0.27300
C2640       C  0.34750817  0.95685544  0.17843727    -0.13100
C2641       C  0.33872349  0.97047162  0.18976344     0.05400
C2642       C  0.34308688  0.97170335  0.20924650    -0.09100
C2643       C  0.35861143  0.96133314  0.21633968     0.06200
C2644       C  0.36795742  0.94831886  0.20463005    -0.13400
Br2645     Br  0.39292295  0.95698285  0.15691633    -0.05500
Br2646     Br  0.35598072  0.87189630  0.17062150     0.00100
Br2647     Br  0.32132284  0.98789242  0.17805473     0.00600
Br2648     Br  0.38895099  0.93386044  0.21410822    -0.03800
Br2649     Br  0.40763319  0.92149692  0.13102984     0.00700
Br2650     Br  0.34114289  0.90780881  0.19588594    -0.03100
Br2651     Br  0.33946814  0.95324501  0.15268584    -0.04000
Br2652     Br  0.36691727  0.96394119  0.24210567     0.00000
C2653       C  0.33448736  0.05060243  0.29210891     0.01400
C2654       C  0.33816367  0.06944993  0.28694995     0.04200
C2655       C  0.34702890  0.08165828  0.29975365    -0.11900
C2656       C  0.35219687  0.07512836  0.31779138     0.23500
C2657       C  0.34858966  0.05631706  0.32296599    -0.12400
C2658       C  0.33970356  0.04405952  0.31017266     0.04900
C2659       C  0.36213309  0.08796642  0.33092745     0.27300
C2660       C  0.38188714  0.08934085  0.33014481    -0.13100
C2661       C  0.39128033  0.10304580  0.34084301     0.05400
C2662       C  0.38088754  0.11589757  0.35204898    -0.09100
C2663       C  0.36124564  0.11332181  0.35412302     0.06200
C2664       C  0.35188004  0.09944621  0.34344882    -0.13400
Br2665     Br  0.35582133  0.04749596  0.34764783    -0.05500
Br2666     Br  0.33158190  0.07847263  0.26211570     0.00100
Br2667     Br  0.41854583  0.10393529  0.34019408     0.00600
Br2668     Br  0.32486419  0.09666212  0.34515685    -0.03800
Br2669     Br  0.33376357  0.01863001  0.31782464     0.00700
Br2670     Br  0.35229302  0.10737018  0.29258998    -0.03100
Br2671     Br  0.39594768  0.07297935  0.31358826    -0.04000
Br2672     Br  0.34689461  0.12904652  0.37086629     0.00000
C2673       C  0.53606407  0.79311475  0.73830097     0.01400
C2674       C  0.53966861  0.81252717  0.74006451     0.04200
C2675       C  0.54690188  0.82280724  0.72469783    -0.11900
C2676       C  0.54967394  0.81390137  0.70716008     0.23500
C2677       C  0.54581151  0.79453070  0.70530214    -0.12400
C2678       C  0.53939246  0.78407081  0.72096441     0.04900
C2679       C  0.55770057  0.82477130  0.69107331     0.27300
C2680       C  0.54634877  0.83717114  0.68067547    -0.13100
C2681       C  0.55450735  0.84965921  0.66741493     0.05400
C2682       C  0.57400751  0.84793029  0.66223797    -0.09100
C2683       C  0.58534761  0.83613027  0.67405200     0.06200
C2684       C  0.57718641  0.82450327  0.68796075    -0.13400
Br2685     Br  0.54912063  0.78250881  0.68119657    -0.05500
Br2686     Br  0.53449264  0.82509563  0.76351421     0.00100
Br2687     Br  0.53951641  0.87170089  0.66176105     0.00600
Br2688     Br  0.59284704  0.80882511  0.70392738    -0.03800
Br2689     Br  0.53497512  0.75740374  0.71870597     0.00700
Br2690     Br  0.55327519  0.84906238  0.72772284    -0.03100
Br2691     Br  0.51953234  0.83773541  0.68574865    -0.04000
Br2692     Br  0.61244018  0.83781069  0.67452334     0.00000
C2693       C  0.39046244  0.88098547  0.83628154     0.01400
C2694       C  0.40422135  0.88656750  0.82282050     0.04200
C2695       C  0.41717991  0.87331722  0.81574134    -0.11900
C2696       C  0.41635946  0.85449330  0.82184896     0.23500
C2697       C  0.40242350  0.84877387  0.83476101    -0.12400
C2698       C  0.38954565  0.86192697  0.84197314     0.04900
C2699       C  0.43050603  0.84061991  0.81537790     0.27300
C2700       C  0.42646848  0.82877295  0.80003919    -0.13100
C2701       C  0.43868748  0.81383367  0.79557913     0.05400
C2702       C  0.45524919  0.81094354  0.80628729    -0.09100
C2703       C  0.45958418  0.82338881  0.82123935     0.06200
C2704       C  0.44718171  0.83811258  0.82577570    -0.13400
Br2705     Br  0.40117338  0.82272462  0.84263655    -0.05500
Br2706     Br  0.40634460  0.91249245  0.81472409     0.00100
Br2707     Br  0.43172986  0.79658038  0.77576395     0.00600
Br2708     Br  0.45271135  0.85473181  0.84657145    -0.03800
Br2709     Br  0.37033520  0.85320408  0.85905699     0.00700
Br2710     Br  0.43638847  0.88084190  0.79793139    -0.03100
Br2711     Br  0.40380305  0.83280884  0.78557203    -0.04000
Br2712     Br  0.48263910  0.82079004  0.83549432     0.00000
C2713       C  0.54225628  0.79587545  0.84044579     0.01400
C2714       C  0.55193139  0.78940195  0.85652822     0.04200
C2715       C  0.56376559  0.80174152  0.86665471    -0.11900
C2716       C  0.56631015  0.82049802  0.86051157     0.23500
C2717       C  0.55603895  0.82716920  0.84489374    -0.12400
C2718       C  0.54396719  0.81492861  0.83499513     0.04900
C2719       C  0.58117893  0.83245261  0.86931029     0.27300
C2720       C  0.57662970  0.84578324  0.88325457    -0.13100
C2721       C  0.59105908  0.85600269  0.89238052     0.05400
C2722       C  0.61023127  0.85261542  0.88793894    -0.09100
C2723       C  0.61463927  0.83950186  0.87354270     0.06200
C2724       C  0.60014760  0.82985689  0.86404580    -0.13400
Br2725     Br  0.55915366  0.85288084  0.83661867    -0.05500
Br2726     Br  0.54999293  0.76333435  0.86386741     0.00100
Br2727     Br  0.58425140  0.87361062  0.91178917     0.00600
Br2728     Br  0.60618709  0.81290104  0.84366641    -0.03800
Br2729     Br  0.52980538  0.82426188  0.81381968     0.00700
Br2730     Br  0.57709606  0.79287324  0.88862405    -0.03100
Br2731     Br  0.55057346  0.84955204  0.89018005    -0.04000
Br2732     Br  0.64053037  0.83460154  0.86639461     0.00000
C2733       C  0.38763756  0.35466202  0.62181977     0.01400
C2734       C  0.40656063  0.36148141  0.62123773     0.04200
C2735       C  0.42130166  0.35053838  0.62886933    -0.11900
C2736       C  0.41727786  0.33370739  0.63848659     0.23500
C2737       C  0.39848136  0.32822761  0.64136846    -0.12400
C2738       C  0.38373896  0.33878804  0.63343700     0.04900
C2739       C  0.43269911  0.32238205  0.64686587     0.27300
C2740       C  0.44074979  0.30737853  0.63671819    -0.13100
C2741       C  0.45414335  0.29555524  0.64538690     0.05400
C2742       C  0.45958864  0.29884330  0.66425424    -0.09100
C2743       C  0.45232366  0.31467321  0.67391815     0.06200
C2744       C  0.43869002  0.32617359  0.66535343    -0.13400
Br2745     Br  0.39305275  0.30591574  0.65607231    -0.05500
Br2746     Br  0.41327487  0.38611535  0.61190388     0.00100
Br2747     Br  0.46408484  0.27437682  0.63162079     0.00600
Br2748     Br  0.42766590  0.34686172  0.67911358    -0.03800
Br2749     Br  0.35824290  0.33216278  0.64031405     0.00700
Br2750     Br  0.44730499  0.35824310  0.62593210    -0.03100
Br2751     Br  0.43284908  0.30278619  0.61112242    -0.04000
Br2752     Br  0.46153660  0.32127754  0.69867329     0.00000
C2753       C  0.38100536  0.39706112  0.57165556     0.01400
C2754       C  0.39909685  0.39085195  0.56620738     0.04200
C2755       C  0.41144766  0.40321316  0.55677640    -0.11900
C2756       C  0.40524870  0.42130076  0.55149578     0.23500
C2757       C  0.38634605  0.42652258  0.55470283    -0.12400
C2758       C  0.37411400  0.41422762  0.56441472     0.04900
C2759       C  0.41861908  0.43476854  0.54259113     0.27300
C2760       C  0.43022478  0.44603438  0.55406458    -0.13100
C2761       C  0.44332693  0.45845625  0.54579127     0.05400
C2762       C  0.44473909  0.45981227  0.52601004    -0.09100
C2763       C  0.43284627  0.44886936  0.51451962     0.06200
C2764       C  0.41994057  0.43619330  0.52279472    -0.13400
Br2765     Br  0.37725680  0.45044625  0.54563094    -0.05500
Br2766     Br  0.40612263  0.36479009  0.56948960     0.00100
Br2767     Br  0.45918882  0.47384687  0.56155218     0.00600
Br2768     Br  0.40434185  0.42046128  0.50711207    -0.03800
Br2769     Br  0.34752618  0.41993204  0.56592868     0.00700
Br2770     Br  0.43683249  0.39539014  0.55094808    -0.03100
Br2771     Br  0.42817054  0.44426952  0.58115513    -0.04000
Br2772     Br  0.43453531  0.45107527  0.48746579     0.00000
C2773       C  0.52349147  0.44702365  0.45863591     0.01400
C2774       C  0.51171152  0.43512412  0.44798811     0.04200
C2775       C  0.51963878  0.42074413  0.43679444    -0.11900
C2776       C  0.53937080  0.41815408  0.43630259     0.23500
C2777       C  0.55098341  0.42921188  0.44799661    -0.12400
C2778       C  0.54307813  0.44367048  0.45904401     0.04900
C2779       C  0.54811036  0.40539499  0.42207476     0.27300
C2780       C  0.55225350  0.38646210  0.42641510    -0.13100
C2781       C  0.56152945  0.37502130  0.41303459     0.05400
C2782       C  0.56749767  0.38276617  0.39563082    -0.09100
C2783       C  0.56090401  0.40073720  0.39041695     0.06200
C2784       C  0.55201934  0.41231779  0.40383202    -0.13400
Br2785     Br  0.57780190  0.42473555  0.44849128    -0.05500
Br2786     Br  0.48478040  0.43879041  0.44856954     0.00100
Br2787     Br  0.56482454  0.34847957  0.41800627     0.00600
Br2788     Br  0.54523144  0.43778435  0.39725460    -0.03800
Br2789     Br  0.55909539  0.45922430  0.47450787     0.00700
Br2790     Br  0.50361558  0.40481800  0.42176030    -0.03100
Br2791     Br  0.54525937  0.37632476  0.45066409    -0.04000
Br2792     Br  0.56120831  0.40827140  0.36425435     0.00000
C2793       C  0.38796694  0.62522330  0.33800725     0.01400
C2794       C  0.40080888  0.62013169  0.32347641     0.04200
C2795       C  0.41332243  0.63356071  0.31569612    -0.11900
C2796       C  0.41332595  0.65219068  0.32232803     0.23500
C2797       C  0.40095285  0.65729789  0.33697276    -0.12400
C2798       C  0.38850604  0.64392575  0.34491990     0.04900
C2799       C  0.42715231  0.66625000  0.31490375     0.27300
C2800       C  0.44505443  0.66781606  0.32331534    -0.13100
C2801       C  0.45737303  0.68246016  0.31796392     0.05400
C2802       C  0.45176609  0.69592054  0.30431333    -0.09100
C2803       C  0.43426001  0.69367051  0.29511157     0.06200
C2804       C  0.42202567  0.67884440  0.30038842    -0.13400
Br2805     Br  0.40142047  0.68282198  0.34632622    -0.05500
Br2806     Br  0.40313333  0.59431620  0.31550344     0.00100
Br2807     Br  0.48216562  0.68370856  0.32920936     0.00600
Br2808     Br  0.39787335  0.67607704  0.28826976    -0.03800
Br2809     Br  0.37257192  0.65183888  0.36535350     0.00700
Br2810     Br  0.43105475  0.62642845  0.29630293    -0.03100
Br2811     Br  0.45238698  0.65014181  0.34268754    -0.04000
Br2812     Br  0.42636378  0.71155501  0.27622317     0.00000
C2813       C  0.39122615  0.57457650  0.38035294     0.01400
C2814       C  0.38598753  0.55940310  0.39243932     0.04200
C2815       C  0.39926647  0.55113456  0.40464608    -0.11900
C2816       C  0.41801655  0.55749054  0.40477542     0.23500
C2817       C  0.42351219  0.57226336  0.39274643    -0.12400
C2818       C  0.41024390  0.58086398  0.38069050     0.04900
C2819       C  0.43181219  0.54882823  0.41796169     0.27300
C2820       C  0.43590857  0.55769058  0.43521360    -0.13100
C2821       C  0.44826448  0.54911551  0.44811121     0.05400
C2822       C  0.45596913  0.53120483  0.44422031    -0.09100
C2823       C  0.45234882  0.52260277  0.42667671     0.06200
C2824       C  0.44037173  0.53147864  0.41353543    -0.13400
Br2825     Br  0.44946563  0.58059756  0.39291210    -0.05500
Br2826     Br  0.36042113  0.55036575  0.39398747     0.00100
Br2827     Br  0.45548585  0.56250652  0.47067262     0.00600
Br2828     Br  0.43532166  0.51980572  0.38953651    -0.03800
Br2829     Br  0.41900562  0.60066539  0.36434789     0.00700
Br2830     Br  0.39173557  0.53132194  0.42186314    -0.03100
Br2831     Br  0.42419117  0.58141935  0.44134697    -0.04000
Br2832     Br  0.46311554  0.49837723  0.42087008     0.00000
C2833       C  0.46947218  0.55700231  0.54236103     0.01400
C2834       C  0.47592630  0.57583049  0.54165023     0.04200
C2835       C  0.46818856  0.58948735  0.55386081    -0.11900
C2836       C  0.45361874  0.58455799  0.56650353     0.23500
C2837       C  0.44673864  0.56594626  0.56679001    -0.12400
C2838       C  0.45475702  0.55217745  0.55498358     0.04900
C2839       C  0.44542599  0.59873236  0.57968139     0.27300
C2840       C  0.45199528  0.59982053  0.59832735    -0.13100
C2841       C  0.44265651  0.61123966  0.61161333     0.05400
C2842       C  0.42732192  0.62286083  0.60615883    -0.09100
C2843       C  0.42066440  0.62147820  0.58731109     0.06200
C2844       C  0.42977993  0.60957927  0.57421083    -0.13400
Br2845     Br  0.42611082  0.55941690  0.58340209    -0.05500
Br2846     Br  0.49447700  0.58325827  0.52311869     0.00100
Br2847     Br  0.44912910  0.60821569  0.63781658     0.00600
Br2848     Br  0.42079926  0.60778662  0.54856941    -0.03800
Br2849     Br  0.44595778  0.52651096  0.55684977     0.00700
Br2850     Br  0.47735871  0.61503582  0.55325071    -0.03100
Br2851     Br  0.47371089  0.58518265  0.60568756    -0.04000
Br2852     Br  0.39875514  0.63492621  0.57884036     0.00000
C2853       C  0.46732780  0.72715463  0.73546360     0.01400
C2854       C  0.46897951  0.73495910  0.71714557     0.04200
C2855       C  0.46156781  0.72526275  0.70147266    -0.11900
C2856       C  0.45246648  0.70781207  0.70398801     0.23500
C2857       C  0.45035791  0.70027167  0.72226948    -0.12400
C2858       C  0.45743574  0.71004150  0.73796356     0.04900
C2859       C  0.44452266  0.69741413  0.68761268     0.27300
C2860       C  0.42539052  0.69928450  0.68324936    -0.13100
C2861       C  0.41683540  0.68727646  0.66995241     0.05400
C2862       C  0.42766611  0.67338199  0.65989368    -0.09100
C2863       C  0.44696041  0.67119969  0.66548577     0.06200
C2864       C  0.45537611  0.68378769  0.67838838    -0.13400
Br2865     Br  0.43784611  0.67634006  0.72574183    -0.05500
Br2866     Br  0.48182425  0.75860620  0.71319889     0.00100
Br2867     Br  0.38964557  0.68938125  0.66827901     0.00600
Br2868     Br  0.48189264  0.68188999  0.68457625    -0.03800
Br2869     Br  0.45233320  0.70048474  0.76300203     0.00700
Br2870     Br  0.46408745  0.73558665  0.67641878    -0.03100
Br2871     Br  0.41078230  0.71814225  0.69650189    -0.04000
Br2872     Br  0.46168843  0.64918363  0.65991951     0.00000
C2873       C  0.61228362  0.38323787  0.65150618     0.01400
C2874       C  0.59259508  0.38333144  0.64831367     0.04200
C2875       C  0.58111562  0.36911764  0.65614086    -0.11900
C2876       C  0.58917107  0.35473871  0.66715059     0.23500
C2877       C  0.60882423  0.35398613  0.66953763    -0.12400
C2878       C  0.62037460  0.36791091  0.66140006     0.04900
C2879       C  0.57708984  0.33958620  0.67502699     0.27300
C2880       C  0.56765340  0.34205794  0.69233260    -0.13100
C2881       C  0.55535128  0.32799047  0.69918995     0.05400
C2882       C  0.55315344  0.31095287  0.68911447    -0.09100
C2883       C  0.56350671  0.30827600  0.67216869     0.06200
C2884       C  0.57493107  0.32275020  0.66494285    -0.13400
Br2885     Br  0.61985311  0.33360783  0.68380781    -0.05500
Br2886     Br  0.58089491  0.40251133  0.63323565     0.00100
Br2887     Br  0.54057574  0.33298197  0.72151075     0.00600
Br2888     Br  0.58735996  0.31981191  0.64083381    -0.03800
Br2889     Br  0.64736084  0.36461682  0.66214604     0.00700
Br2890     Br  0.55424063  0.36907580  0.65169686    -0.03100
Br2891     Br  0.57144752  0.36497707  0.70636276    -0.04000
Br2892     Br  0.56283846  0.28465159  0.65871177     0.00000
C2893       C  0.60848788  0.43641852  0.61373166     0.01400
C2894       C  0.59432207  0.44744512  0.62258420     0.04200
C2895       C  0.58006502  0.45602556  0.61170758    -0.11900
C2896       C  0.57956975  0.45341470  0.59206727     0.23500
C2897       C  0.59308924  0.44195415  0.58329853    -0.12400
C2898       C  0.60763819  0.43376323  0.59394134     0.04900
C2899       C  0.56559951  0.46350955  0.58020766     0.27300
C2900       C  0.54763942  0.45576506  0.57701520    -0.13100
C2901       C  0.53521252  0.46442546  0.56417302     0.05400
C2902       C  0.54107791  0.48042939  0.55361682    -0.09100
C2903       C  0.55903962  0.48835585  0.55733337     0.06200
C2904       C  0.57104643  0.48008772  0.57078870    -0.13400
Br2905     Br  0.59161073  0.43768854  0.55639979    -0.05500
Br2906     Br  0.59323034  0.44985578  0.64971473     0.00100
Br2907     Br  0.50993913  0.45446514  0.56188630     0.00600
Br2908     Br  0.59554402  0.49091249  0.57586481    -0.03800
Br2909     Br  0.62671453  0.42002122  0.58052751     0.00700
Br2910     Br  0.56101192  0.47133912  0.62358572    -0.03100
Br2911     Br  0.54048049  0.43277472  0.58974266    -0.04000
Br2912     Br  0.56828908  0.50965171  0.54327736     0.00000
C2913       C  0.74019802  0.47445711  0.71312563     0.01400
C2914       C  0.72247286  0.48329997  0.71459522     0.04200
C2915       C  0.70671596  0.47572358  0.70525670    -0.11900
C2916       C  0.70881959  0.45980354  0.69368253     0.23500
C2917       C  0.72670498  0.45132913  0.69166312    -0.12400
C2918       C  0.74230729  0.45846824  0.70161958     0.04900
C2919       C  0.69231999  0.45203826  0.68339004     0.27300
C2920       C  0.68234795  0.43680444  0.69093412    -0.13100
C2921       C  0.66918686  0.42694657  0.67981191     0.05400
C2922       C  0.66286665  0.43447590  0.66206871    -0.09100
C2923       C  0.67278909  0.45076759  0.65512199     0.06200
C2924       C  0.68773056  0.45885932  0.66546389    -0.13400
Br2925     Br  0.72984522  0.43023380  0.67486804    -0.05500
Br2926     Br  0.72009538  0.50657570  0.72826662     0.00100
Br2927     Br  0.66492864  0.40143855  0.68813555     0.00600
Br2928     Br  0.70280721  0.47907714  0.65492013    -0.03800
Br2929     Br  0.76657638  0.44637736  0.69958600     0.00700
Br2930     Br  0.68223235  0.48717125  0.70809472    -0.03100
Br2931     Br  0.68781546  0.42889291  0.71650468    -0.04000
Br2932     Br  0.66790885  0.46224799  0.63088681     0.00000
C2933       C  0.53616811  0.71036750  0.34079934     0.01400
C2934       C  0.54108903  0.71370367  0.35977446     0.04200
C2935       C  0.55347037  0.70131292  0.36914047    -0.11900
C2936       C  0.56076183  0.68551186  0.35963744     0.23500
C2937       C  0.55457738  0.68132395  0.34128383    -0.12400
C2938       C  0.54234038  0.69371494  0.33186603     0.04900
C2939       C  0.57673646  0.67475750  0.36778728     0.27300
C2940       C  0.59521716  0.67981906  0.36276510    -0.13100
C2941       C  0.61058151  0.66942098  0.36960141     0.05400
C2942       C  0.60785614  0.65460292  0.38274117    -0.09100
C2943       C  0.58907558  0.64898517  0.38697310     0.06200
C2944       C  0.57362775  0.65908552  0.37951162    -0.13400
Br2945     Br  0.56363762  0.65895055  0.32882644    -0.05500
Br2946     Br  0.53202032  0.73585017  0.37255221     0.00100
Br2947     Br  0.63505145  0.67451566  0.35906080     0.00600
Br2948     Br  0.54804236  0.65181758  0.38547508    -0.03800
Br2949     Br  0.53388856  0.68766296  0.30673633     0.00700
Br2950     Br  0.56132324  0.70639764  0.39464235    -0.03100
Br2951     Br  0.59944011  0.70137418  0.34658451    -0.04000
Br2952     Br  0.58369977  0.62757808  0.40259909     0.00000
C2953       C  0.61835452  0.60953050  0.42765719     0.01400
C2954       C  0.61744360  0.59014279  0.42315122     0.04200
C2955       C  0.60457441  0.57816940  0.43255455    -0.11900
C2956       C  0.59221150  0.58542453  0.44627635     0.23500
C2957       C  0.59330308  0.60457380  0.45117127    -0.12400
C2958       C  0.60632965  0.61658821  0.44205966     0.04900
C2959       C  0.57763565  0.57305227  0.45516355     0.27300
C2960       C  0.55976745  0.57105648  0.44672656    -0.13100
C2961       C  0.54585509  0.55957688  0.45519271     0.05400
C2962       C  0.54988208  0.54947732  0.47195556    -0.09100
C2963       C  0.56779895  0.55166794  0.48040862     0.06200
C2964       C  0.58154492  0.56345250  0.47209619    -0.13400
Br2965     Br  0.57634113  0.61438774  0.47006403    -0.05500
Br2966     Br  0.63395207  0.57955668  0.40438220     0.00100
Br2967     Br  0.52093393  0.55867289  0.44423484     0.00600
Br2968     Br  0.60600879  0.56624384  0.48364184    -0.03800
Br2969     Br  0.60584919  0.64310177  0.44817081     0.00700
Br2970     Br  0.60373009  0.55166046  0.42672333    -0.03100
Br2971     Br  0.55450132  0.58401021  0.42337526    -0.04000
Br2972     Br  0.57412818  0.53784829  0.50283906     0.00000
C2973       C  0.23452208  0.47242980  0.78543184     0.01400
C2974       C  0.23399275  0.47211549  0.80530615     0.04200
C2975       C  0.21854436  0.46392053  0.81474468    -0.11900
C2976       C  0.20371766  0.45584406  0.80433103     0.23500
C2977       C  0.20438774  0.45591033  0.78446528    -0.12400
C2978       C  0.21974021  0.46424236  0.77502346     0.04900
C2979       C  0.18792997  0.44625494  0.81418963     0.27300
C2980       C  0.18928240  0.42697749  0.81826257    -0.13100
C2981       C  0.17414926  0.41756716  0.82700625     0.05400
C2982       C  0.15797593  0.42766402  0.83315550    -0.09100
C2983       C  0.15549224  0.44611024  0.82569912     0.06200
C2984       C  0.17085368  0.45572212  0.81748228    -0.13400
Br2985     Br  0.18433581  0.44429059  0.77025632    -0.05500
Br2986     Br  0.25493582  0.48199608  0.81955869     0.00100
Br2987     Br  0.17485916  0.39055050  0.82750964     0.00600
Br2988     Br  0.16844979  0.48181943  0.81029579    -0.03800
Br2989     Br  0.22030211  0.46484128  0.74782077     0.00700
Br2990     Br  0.21772847  0.46342959  0.84192362    -0.03100
Br2991     Br  0.21198333  0.41346705  0.81159201    -0.04000
Br2992     Br  0.13061990  0.45619564  0.82095886     0.00000
C2993       C  0.30247900  0.45595055  0.69855817     0.01400
C2994       C  0.32081618  0.44839249  0.69982684     0.04200
C2995       C  0.32748222  0.43618650  0.68577942    -0.11900
C2996       C  0.31642883  0.43266575  0.66969105     0.23500
C2997       C  0.29835889  0.44076321  0.66807358    -0.12400
C2998       C  0.29120698  0.45200869  0.68273249     0.04900
C2999       C  0.32402978  0.42063295  0.65441435     0.27300
C3000       C  0.33695067  0.42809906  0.64135937    -0.13100
C3001       C  0.34498856  0.41651297  0.62738638     0.05400
C3002       C  0.33962675  0.39725216  0.62592942    -0.09100
C3003       C  0.32683922  0.38984343  0.63964011     0.06200
C3004       C  0.31909595  0.40154391  0.65364452    -0.13400
Br3005     Br  0.28368459  0.43681533  0.64556651    -0.05500
Br3006     Br  0.33755250  0.45623295  0.71975331     0.00100
Br3007     Br  0.36323344  0.42795286  0.61078379     0.00600
Br3008     Br  0.30185821  0.39146274  0.67230307    -0.03800
Br3009     Br  0.26593491  0.46184936  0.68130135     0.00700
Br3010     Br  0.35185848  0.42439299  0.68841016    -0.03100
Br3011     Br  0.34346275  0.45451486  0.64277950    -0.04000
Br3012     Br  0.32053047  0.36341879  0.64092418     0.00000
C3013       C  0.38434149  0.61747673  0.65601028     0.01400
C3014       C  0.37293939  0.62201857  0.67183678     0.04200
C3015       C  0.36475965  0.60777356  0.68295247    -0.11900
C3016       C  0.36649154  0.58882234  0.67765838     0.23500
C3017       C  0.37656371  0.58414414  0.66121738    -0.12400
C3018       C  0.38573101  0.59830721  0.65057741     0.04900
C3019       C  0.35627693  0.57411753  0.68863768     0.27300
C3020       C  0.36574401  0.56301794  0.70209699    -0.13100
C3021       C  0.35568332  0.54980731  0.71313528     0.05400
C3022       C  0.33582213  0.54813754  0.71127627    -0.09100
C3023       C  0.32640365  0.55971961  0.69783459     0.06200
C3024       C  0.33671284  0.57213348  0.68627475    -0.13400
Br3025     Br  0.37759903  0.55816352  0.65334771    -0.05500
Br3026     Br  0.36680853  0.64771606  0.67779356     0.00100
Br3027     Br  0.36961904  0.53370856  0.73009501     0.00600
Br3028     Br  0.32401882  0.58684996  0.66712765    -0.03800
Br3029     Br  0.40034803  0.59070890  0.62904318     0.00700
Br3030     Br  0.35097748  0.61416861  0.70561275    -0.03100
Br3031     Br  0.39257102  0.56617671  0.70545031    -0.04000
Br3032     Br  0.29915354  0.56017931  0.69564000     0.00000
C3033       C  0.28792399  0.34122465  0.04681653     0.01400
C3034       C  0.28622522  0.33862488  0.06662544     0.04200
C3035       C  0.29875960  0.34769166  0.07900860    -0.11900
C3036       C  0.31298238  0.35954162  0.07189451     0.23500
C3037       C  0.31490291  0.36211474  0.05229697    -0.12400
C3038       C  0.30250760  0.35297529  0.03975556     0.04900
C3039       C  0.32500202  0.37040030  0.08513769     0.27300
C3040       C  0.31992537  0.38888773  0.08975361    -0.13100
C3041       C  0.33117865  0.39949838  0.10207061     0.05400
C3042       C  0.34692219  0.39118314  0.11134103    -0.09100
C3043       C  0.35194866  0.37244575  0.10652162     0.06200
C3044       C  0.34118764  0.36230776  0.09321744    -0.13400
Br3045     Br  0.33474339  0.37820305  0.04278303    -0.05500
Br3046     Br  0.26635691  0.32331590  0.07741234     0.00100
Br3047     Br  0.32542204  0.42594087  0.10440411     0.00600
Br3048     Br  0.34821755  0.33702664  0.08619319    -0.03800
Br3049     Br  0.30651879  0.35593510  0.01296071     0.00700
Br3050     Br  0.29637629  0.34418060  0.10594290    -0.03100
Br3051     Br  0.29706150  0.39950291  0.07937151    -0.04000
Br3052     Br  0.37284385  0.35974375  0.11825679     0.00000
C3053       C  0.45589347  0.48440665  0.04983187     0.01400
C3054       C  0.43951926  0.49310471  0.05695760     0.04200
C3055       C  0.42810178  0.48361067  0.07022985    -0.11900
C3056       C  0.43304246  0.46539935  0.07645350     0.23500
C3057       C  0.44963448  0.45689090  0.06963561    -0.12400
C3058       C  0.46100448  0.46634334  0.05634251     0.04900
C3059       C  0.42049237  0.45491986  0.08968566     0.27300
C3060       C  0.42302912  0.45641030  0.10928939    -0.13100
C3061       C  0.41098969  0.44661860  0.12179902     0.05400
C3062       C  0.39621106  0.43511997  0.11472863    -0.09100
C3063       C  0.39388527  0.43366485  0.09495070     0.06200
C3064       C  0.40603794  0.44340704  0.08255795    -0.13400
Br3065     Br  0.45652348  0.43208409  0.07831334    -0.05500
Br3066     Br  0.43305039  0.51819981  0.04887998     0.00100
Br3067     Br  0.41544094  0.44878684  0.14859204     0.00600
Br3068     Br  0.40286897  0.44122945  0.05559408    -0.03800
Br3069     Br  0.48308809  0.45408358  0.04628740     0.00700
Br3070     Br  0.40558132  0.49540394  0.07984056    -0.03100
Br3071     Br  0.44317432  0.47196553  0.11885850    -0.04000
Br3072     Br  0.37338179  0.41954259  0.08430471     0.00000
C3073       C  0.54884006  0.70260460  0.80451306     0.01400
C3074       C  0.54497301  0.69387846  0.82202005     0.04200
C3075       C  0.55672168  0.67940227  0.82877621    -0.11900
C3076       C  0.57276208  0.67392721  0.81838662     0.23500
C3077       C  0.57645199  0.68239935  0.80073110    -0.12400
C3078       C  0.56447717  0.69665799  0.79378103     0.04900
C3079       C  0.58600335  0.65966571  0.82631974     0.27300
C3080       C  0.59905554  0.66486665  0.84030035    -0.13100
C3081       C  0.61153285  0.65142205  0.84802169     0.05400
C3082       C  0.61178643  0.63267519  0.84105647    -0.09100
C3083       C  0.59783852  0.62744071  0.82768397     0.06200
C3084       C  0.58509503  0.64083565  0.82041667    -0.13400
Br3085     Br  0.59796158  0.67443565  0.78611713    -0.05500
Br3086     Br  0.52419655  0.70252519  0.83738505     0.00100
Br3087     Br  0.62746756  0.65937148  0.86844348     0.00600
Br3088     Br  0.56588155  0.63340097  0.80262877    -0.03800
Br3089     Br  0.56913948  0.70768594  0.76934122     0.00700
Br3090     Br  0.55087704  0.66697423  0.85230932    -0.03100
Br3091     Br  0.59975043  0.69070476  0.84878400    -0.04000
Br3092     Br  0.59452368  0.60158362  0.82039606     0.00000
C3093       C  0.60900153  0.58383709  0.88281712     0.01400
C3094       C  0.60553181  0.59054164  0.90156722     0.04200
C3095       C  0.59289929  0.58084268  0.91361274    -0.11900
C3096       C  0.58403844  0.56421836  0.90764306     0.23500
C3097       C  0.58669528  0.55789775  0.88911811    -0.12400
C3098       C  0.59808067  0.56818424  0.87649111     0.04900
C3099       C  0.57082139  0.55409019  0.92047047     0.27300
C3100       C  0.57775015  0.54289736  0.93539293    -0.13100
C3101       C  0.56508882  0.53425881  0.94811500     0.05400
C3102       C  0.54545947  0.53599113  0.94536237    -0.09100
C3103       C  0.53866247  0.54613205  0.92971632     0.06200
C3104       C  0.55121076  0.55582331  0.91780327    -0.13400
Br3105     Br  0.57455667  0.53488095  0.88106949    -0.05500
Br3106     Br  0.61699581  0.61282257  0.91214678     0.00100
Br3107     Br  0.57464711  0.52089298  0.96977267     0.00600
Br3108     Br  0.54147630  0.57203687  0.89822096    -0.03800
Br3109     Br  0.59607787  0.56169059  0.85010166     0.00700
Br3110     Br  0.58732567  0.59029517  0.93862037    -0.03100
Br3111     Br  0.60458843  0.53970886  0.93850944    -0.04000
Br3112     Br  0.51221859  0.54561966  0.92380235     0.00000
C3113       C  0.66043325  0.57834754  0.83234520     0.01400
C3114       C  0.65881749  0.57694875  0.81235073     0.04200
C3115       C  0.67352757  0.56884797  0.80163138    -0.11900
C3116       C  0.68910878  0.56063354  0.81064656     0.23500
C3117       C  0.68924697  0.55907199  0.83035667    -0.12400
C3118       C  0.67472359  0.56720598  0.84112986     0.04900
C3119       C  0.70509329  0.55284391  0.79951727     0.27300
C3120       C  0.70516922  0.53377219  0.79430443    -0.13100
C3121       C  0.72101725  0.52595682  0.78519673     0.05400
C3122       C  0.73709403  0.53730926  0.78114226    -0.09100
C3123       C  0.73677571  0.55659403  0.78642894     0.06200
C3124       C  0.72075807  0.56426698  0.79534434    -0.13400
Br3125     Br  0.70979726  0.54600953  0.84258325    -0.05500
Br3126     Br  0.63533279  0.58118570  0.79940486     0.00100
Br3127     Br  0.71994358  0.49964695  0.77836503     0.00600
Br3128     Br  0.72021098  0.59053352  0.80229383    -0.03800
Br3129     Br  0.67457676  0.56197093  0.86790967     0.00700
Br3130     Br  0.67237830  0.56856264  0.77442413    -0.03100
Br3131     Br  0.68335776  0.51838465  0.79990871    -0.04000
Br3132     Br  0.75860307  0.57263084  0.78310668     0.00000
C3133       C  0.38564133  0.66020262  0.87982883     0.01400
C3134       C  0.38116927  0.67155770  0.86406157     0.04200
C3135       C  0.39506191  0.68281321  0.85541495    -0.11900
C3136       C  0.41391904  0.68174344  0.86145852     0.23500
C3137       C  0.41882569  0.66892902  0.87585667    -0.12400
C3138       C  0.40473686  0.65822366  0.88505141     0.04900
C3139       C  0.42870497  0.69344583  0.85208137     0.27300
C3140       C  0.44008038  0.68555600  0.83791984    -0.13100
C3141       C  0.45482155  0.69611901  0.82973696     0.05400
C3142       C  0.45719523  0.71548144  0.83428777    -0.09100
C3143       C  0.44495316  0.72359699  0.84790414     0.06200
C3144       C  0.43132278  0.71240117  0.85722063    -0.13400
Br3145     Br  0.44488134  0.66652284  0.88328813    -0.05500
Br3146     Br  0.35644117  0.67036293  0.85298535     0.00100
Br3147     Br  0.47218445  0.68312560  0.81321742     0.00600
Br3148     Br  0.41589472  0.72302291  0.87696515    -0.03800
Br3149     Br  0.41186486  0.64084005  0.90453251     0.00700
Br3150     Br  0.38818904  0.70004073  0.83550201    -0.03100
Br3151     Br  0.43496310  0.66024821  0.82939030    -0.04000
Br3152     Br  0.44543105  0.75028466  0.85309060     0.00000
C3153       C  0.33668735  0.61621742  0.87365260     0.01400
C3154       C  0.31893687  0.60736217  0.87692950     0.04200
C3155       C  0.31044265  0.59636578  0.86283550    -0.11900
C3156       C  0.32034540  0.59216678  0.84623503     0.23500
C3157       C  0.33863194  0.59938377  0.84350745    -0.12400
C3158       C  0.34663450  0.61176765  0.85681067     0.04900
C3159       C  0.31206931  0.57909027  0.83217561     0.27300
C3160       C  0.31317090  0.55951974  0.83520288    -0.13100
C3161       C  0.30654318  0.54702324  0.82139486     0.05400
C3162       C  0.29940386  0.55398295  0.80421761    -0.09100
C3163       C  0.29750419  0.57355346  0.80149512     0.06200
C3164       C  0.30365988  0.58610211  0.81557580    -0.13400
Br3165     Br  0.35271681  0.59199908  0.82136423    -0.05500
Br3166     Br  0.30680494  0.60804466  0.90139455     0.00100
Br3167     Br  0.30691403  0.52026221  0.82608189     0.00600
Br3168     Br  0.30108749  0.61289842  0.81204016    -0.03800
Br3169     Br  0.37095784  0.62242920  0.85089311     0.00700
Br3170     Br  0.28507968  0.58692566  0.86615221    -0.03100
Br3171     Br  0.32447891  0.54983979  0.85798009    -0.04000
Br3172     Br  0.28752243  0.58315567  0.77810002     0.00000
C3173       C  0.37497396  0.61592152  0.92764544     0.01400
C3174       C  0.38713109  0.62246723  0.94210663     0.04200
C3175       C  0.39971674  0.60997273  0.95107190    -0.11900
C3176       C  0.40036875  0.59089802  0.94581186     0.23500
C3177       C  0.38771833  0.58410611  0.93214852    -0.12400
C3178       C  0.37494236  0.59648132  0.92325403     0.04900
C3179       C  0.41526449  0.57840976  0.95382004     0.27300
C3180       C  0.43329814  0.57816209  0.94551387    -0.13100
C3181       C  0.44794897  0.56750352  0.95365201     0.05400
C3182       C  0.44463905  0.55653780  0.97004097    -0.09100
C3183       C  0.42637318  0.55673937  0.97824611     0.06200
C3184       C  0.41181908  0.56765403  0.97016979    -0.13400
Br3185     Br  0.38833288  0.55783014  0.92534054    -0.05500
Br3186     Br  0.38796978  0.64877276  0.94897936     0.00100
Br3187     Br  0.47229125  0.56778260  0.94167318     0.00600
Br3188     Br  0.38709075  0.56814879  0.98155278    -0.03800
Br3189     Br  0.35689544  0.58631461  0.90574632     0.00700
Br3190     Br  0.41681678  0.61904361  0.97017520    -0.03100
Br3191     Br  0.43776775  0.59248689  0.92273450    -0.04000
Br3192     Br  0.42128907  0.54303544  0.00124697     0.00000
C3193       C  0.32687747  0.66969358  0.91960045     0.01400
C3194       C  0.31748460  0.66613184  0.93702051     0.04200
C3195       C  0.30844085  0.68091934  0.94666541    -0.11900
C3196       C  0.30673500  0.69871200  0.93815973     0.23500
C3197       C  0.31277073  0.70129196  0.91949688    -0.12400
C3198       C  0.32202076  0.68661460  0.90997243     0.04900
C3199       C  0.29748824  0.71437569  0.94838846     0.27300
C3200       C  0.27772296  0.71629257  0.94800777    -0.13100
C3201       C  0.26901419  0.73119902  0.95770448     0.05400
C3202       C  0.28003902  0.74412637  0.96802786    -0.09100
C3203       C  0.29983562  0.74200932  0.96855869     0.06200
C3204       C  0.30853620  0.72738347  0.95844404    -0.13400
Br3205     Br  0.30822827  0.72507815  0.90702044    -0.05500
Br3206     Br  0.31234903  0.64080686  0.94566897     0.00100
Br3207     Br  0.24190952  0.73341165  0.95733837     0.00600
Br3208     Br  0.33567680  0.72540102  0.95778959    -0.03800
Br3209     Br  0.32491317  0.68915707  0.88313581     0.00700
Br3210     Br  0.29806728  0.67685939  0.97153772    -0.03100
Br3211     Br  0.26267850  0.69857473  0.93393232    -0.04000
Br3212     Br  0.31524025  0.75943828  0.98258735     0.00000
C3213       C  0.37633083  0.34752087  0.89143849     0.01400
C3214       C  0.36231259  0.33471622  0.88514631     0.04200
C3215       C  0.34885052  0.32728447  0.89775108    -0.11900
C3216       C  0.34808686  0.33366475  0.91646449     0.23500
C3217       C  0.36136758  0.34700901  0.92271973    -0.12400
C3218       C  0.37563855  0.35363953  0.91043738     0.04900
C3219       C  0.33247282  0.32731340  0.92910516     0.27300
C3220       C  0.31433069  0.33512058  0.92700981    -0.13100
C3221       C  0.29942706  0.32916374  0.93874494     0.05400
C3222       C  0.30265492  0.31586846  0.95322575    -0.09100
C3223       C  0.32085031  0.30798684  0.95527787     0.06200
C3224       C  0.33560094  0.31344725  0.94301408    -0.13400
Br3225     Br  0.35973939  0.35632819  0.94821925    -0.05500
Br3226     Br  0.35970368  0.32867117  0.85889997     0.00100
Br3227     Br  0.27432734  0.33856522  0.93419586     0.00600
Br3228     Br  0.36013947  0.30193131  0.94512841    -0.03800
Br3229     Br  0.39423664  0.37070651  0.92027728     0.00700
Br3230     Br  0.33116836  0.30832813  0.88939749    -0.03100
Br3231     Br  0.30995350  0.35416227  0.90803081    -0.04000
Br3232     Br  0.32598796  0.29054242  0.97552596     0.00000
C3233       C  0.38452266  0.39235865  0.84214466     0.01400
C3234       C  0.36533267  0.39632606  0.84586058     0.04200
C3235       C  0.35600384  0.41061360  0.83568050    -0.11900
C3236       C  0.36547992  0.42040235  0.82118398     0.23500
C3237       C  0.38449401  0.41643892  0.81732795    -0.12400
C3238       C  0.39421971  0.40308013  0.82821158     0.04900
C3239       C  0.35536027  0.43450580  0.80951788     0.27300
C3240       C  0.34454156  0.42847545  0.79409505    -0.13100
C3241       C  0.33500412  0.44168604  0.78285127     0.05400
C3242       C  0.33616818  0.46119361  0.78698679    -0.09100
C3243       C  0.34755517  0.46721892  0.80217900     0.06200
C3244       C  0.35706472  0.45386535  0.81342181    -0.13400
Br3245     Br  0.39706544  0.42911471  0.79669220    -0.05500
Br3246     Br  0.35129666  0.38181028  0.86410008     0.00100
Br3247     Br  0.32075822  0.43261175  0.76148883     0.00600
Br3248     Br  0.37221281  0.46190807  0.83450552    -0.03800
Br3249     Br  0.42126135  0.40106477  0.82487677     0.00700
Br3250     Br  0.33006363  0.41668411  0.84125069    -0.03100
Br3251     Br  0.34284900  0.40192757  0.78843613    -0.04000
Br3252     Br  0.34946200  0.49354461  0.80845734     0.00000
C3253       C  0.42728574  0.39068191  0.89032366     0.01400
C3254       C  0.42307450  0.41023384  0.88943856     0.04200
C3255       C  0.43211578  0.42313989  0.90159270    -0.11900
C3256       C  0.44576016  0.41695871  0.91458278     0.23500
C3257       C  0.44974211  0.39757862  0.91589917    -0.12400
C3258       C  0.44025860  0.38450958  0.90425476     0.04900
C3259       C  0.45524219  0.43084399  0.92737176     0.27300
C3260       C  0.47001667  0.44239744  0.92063652    -0.13100
C3261       C  0.47802174  0.45640644  0.93232196     0.05400
C3262       C  0.47182930  0.45853795  0.95120675    -0.09100
C3263       C  0.45740595  0.44646047  0.95805243     0.06200
C3264       C  0.44889156  0.43307785  0.94607442    -0.13400
Br3265     Br  0.46818396  0.38895783  0.93392957    -0.05500
Br3266     Br  0.40526311  0.42025315  0.87171308     0.00100
Br3267     Br  0.49646757  0.47347809  0.92180083     0.00600
Br3268     Br  0.42799048  0.41808384  0.95509421    -0.03800
Br3269     Br  0.44366896  0.35802052  0.90915104     0.00700
Br3270     Br  0.42564587  0.44956781  0.90077923    -0.03100
Br3271     Br  0.47900532  0.43915324  0.89514905    -0.04000
Br3272     Br  0.44966895  0.44743977  0.98417366     0.00000
C3273       C  0.42682144  0.33547507  0.84174314     0.01400
C3274       C  0.41753728  0.32755551  0.82569936     0.04200
C3275       C  0.42782942  0.31794004  0.81173303    -0.11900
C3276       C  0.44725798  0.31499341  0.81386142     0.23500
C3277       C  0.45598156  0.31997534  0.83092931    -0.12400
C3278       C  0.44561686  0.32931868  0.84518331     0.04900
C3279       C  0.45810580  0.30632727  0.79806467     0.27300
C3280       C  0.45770794  0.28668769  0.79530156    -0.13100
C3281       C  0.46513142  0.27881543  0.77862057     0.05400
C3282       C  0.47378548  0.29047808  0.76490868    -0.09100
C3283       C  0.47474553  0.31009732  0.76804685     0.06200
C3284       C  0.46675635  0.31797430  0.78445351    -0.13400
Br3285     Br  0.48214276  0.31362792  0.83475283    -0.05500
Br3286     Br  0.39052706  0.32837802  0.82247905     0.00100
Br3287     Br  0.46339017  0.25199052  0.77471384     0.00600
Br3288     Br  0.46689312  0.34489188  0.78804442    -0.03800
Br3289     Br  0.45602327  0.32915080  0.87023844     0.00700
Br3290     Br  0.41538633  0.30896357  0.78918477    -0.03100
Br3291     Br  0.44660785  0.27068081  0.81434530    -0.04000
Br3292     Br  0.48573926  0.32647579  0.74925139     0.00000
C3293       C  0.57260503  0.62606126  0.10718079     0.01400
C3294       C  0.55978108  0.63465121  0.09435740     0.04200
C3295       C  0.55015662  0.62372659  0.08074937    -0.11900
C3296       C  0.55343252  0.60423725  0.07935418     0.23500
C3297       C  0.56645695  0.59571060  0.09162707    -0.12400
C3298       C  0.57582871  0.60640383  0.10552419     0.04900
C3299       C  0.54295440  0.59243799  0.06532712     0.27300
C3300       C  0.52657899  0.58260506  0.07090154    -0.13100
C3301       C  0.51768107  0.56995608  0.05841527     0.05400
C3302       C  0.52500352  0.56700976  0.04008271    -0.09100
C3303       C  0.54104421  0.57743853  0.03426434     0.06200
C3304       C  0.54997493  0.59003324  0.04686098    -0.13400
Br3305     Br  0.57133659  0.56905439  0.08929136    -0.05500
Br3306     Br  0.55635760  0.66165018  0.09389856     0.00100
Br3307     Br  0.49518271  0.55686262  0.06648867     0.00600
Br3308     Br  0.57237931  0.60349468  0.03920396    -0.03800
Br3309     Br  0.59228371  0.59324772  0.12256592     0.00700
Br3310     Br  0.53244306  0.63539266  0.06374569    -0.03100
Br3311     Br  0.51664538  0.58620345  0.09598057    -0.04000
Br3312     Br  0.55178520  0.57352159  0.00955954     0.00000
C3313       C  0.53432719  0.72427559  0.23914249     0.01400
C3314       C  0.55065818  0.71309966  0.24143784     0.04200
C3315       C  0.55896010  0.70418391  0.22572990    -0.11900
C3316       C  0.55127486  0.70661766  0.20755125     0.23500
C3317       C  0.53555626  0.71844255  0.20508226    -0.12400
C3318       C  0.52701018  0.72713324  0.22078534     0.04900
C3319       C  0.55933689  0.69608547  0.19121172     0.27300
C3320       C  0.57539806  0.70282814  0.18190101    -0.13100
C3321       C  0.58492333  0.69149108  0.16860352     0.05400
C3322       C  0.57679080  0.67422591  0.16188237    -0.09100
C3323       C  0.56038543  0.66761396  0.17186661     0.06200
C3324       C  0.55199678  0.67844338  0.18634066    -0.13400
Br3325     Br  0.52575505  0.72254661  0.18005617    -0.05500
Br3326     Br  0.56119676  0.70897714  0.26617265     0.00100
Br3327     Br  0.61081585  0.69853951  0.16445468     0.00600
Br3328     Br  0.53060401  0.66889485  0.20046671    -0.03800
Br3329     Br  0.50556024  0.74341866  0.21688789     0.00700
Br3330     Br  0.58057692  0.68803174  0.22912117    -0.03100
Br3331     Br  0.58485220  0.72754647  0.18843203    -0.04000
Br3332     Br  0.54960239  0.64291274  0.16821222     0.00000
C3333       C  0.55084965  0.46657422  0.02307877     0.01400
C3334       C  0.55009619  0.46083059  0.04233434     0.04200
C3335       C  0.56328131  0.44781366  0.04945161    -0.11900
C3336       C  0.57727732  0.44029010  0.03764484     0.23500
C3337       C  0.57846564  0.44613515  0.01872697    -0.12400
C3338       C  0.56555260  0.45939786  0.01149191     0.04900
C3339       C  0.59066762  0.42613850  0.04532748     0.27300
C3340       C  0.60821296  0.43185964  0.05267230    -0.13100
C3341       C  0.62019824  0.41857157  0.06121931     0.05400
C3342       C  0.61397970  0.39990948  0.06389347    -0.09100
C3343       C  0.59749864  0.39377462  0.05460083     0.06200
C3344       C  0.58569412  0.40693414  0.04561262    -0.13400
Br3345     Br  0.59792563  0.43576802  0.00276556    -0.05500
Br3346     Br  0.53098863  0.46996494  0.05952150     0.00100
Br3347     Br  0.64595205  0.42526929  0.06694616     0.00600
Br3348     Br  0.56265229  0.39877558  0.03372578    -0.03800
Br3349     Br  0.56926380  0.46836925  0.98599793     0.00700
Br3350     Br  0.56225268  0.43994279  0.07556857    -0.03100
Br3351     Br  0.61567404  0.45791674  0.05118508    -0.04000
Br3352     Br  0.59182312  0.36725248  0.05284490     0.00000
C3353       C  0.66256414  0.34863473  0.06786908     0.01400
C3354       C  0.65568423  0.33243482  0.05832023     0.04200
C3355       C  0.66815357  0.31795782  0.05304329    -0.11900
C3356       C  0.68759944  0.31965824  0.05668343     0.23500
C3357       C  0.69467927  0.33661262  0.06403110    -0.12400
C3358       C  0.68235428  0.35162447  0.06783024     0.04900
C3359       C  0.70055260  0.30444751  0.05045088     0.27300
C3360       C  0.70138856  0.28734719  0.06052928    -0.13100
C3361       C  0.71007894  0.27146134  0.05240162     0.05400
C3362       C  0.71888335  0.27297110  0.03454075    -0.09100
C3363       C  0.71993532  0.29075762  0.02561544     0.06200
C3364       C  0.71028502  0.30625763  0.03320754    -0.13400
Br3365     Br  0.72127293  0.33934834  0.06899553    -0.05500
Br3366     Br  0.62960654  0.33042831  0.05059577     0.00100
Br3367     Br  0.70839112  0.24749715  0.06517015     0.00600
Br3368     Br  0.70949679  0.32968813  0.01934785    -0.03800
Br3369     Br  0.69270760  0.37678424  0.06662444     0.00700
Br3370     Br  0.65861657  0.29562154  0.04076639    -0.03100
Br3371     Br  0.68990418  0.28568685  0.08516872    -0.04000
Br3372     Br  0.73512947  0.29422329  0.00323473     0.00000
C3373       C  0.03202163  0.56357608  0.45500729     0.01400
C3374       C  0.05117753  0.56139843  0.45020923     0.04200
C3375       C  0.05998437  0.57436563  0.43810586    -0.11900
C3376       C  0.05005020  0.59033932  0.43180406     0.23500
C3377       C  0.03118044  0.59314968  0.43752357    -0.12400
C3378       C  0.02203878  0.57954170  0.44878433     0.04900
C3379       C  0.05925891  0.60349023  0.41834495     0.27300
C3380       C  0.07339438  0.61592542  0.42452904    -0.13100
C3381       C  0.08362395  0.62683535  0.41138907     0.05400
C3382       C  0.07898249  0.62627465  0.39197734    -0.09100
C3383       C  0.06440294  0.61393410  0.38601491     0.06200
C3384       C  0.05492445  0.60238028  0.39907353    -0.13400
Br3385     Br  0.01780416  0.61539118  0.42951429    -0.05500
Br3386     Br  0.06561431  0.54104502  0.46092728     0.00100
Br3387     Br  0.10394659  0.64217065  0.42054711     0.00600
Br3388     Br  0.03646127  0.58424799  0.39050131    -0.03800
Br3389     Br  0.99566832  0.58222079  0.45485201     0.00700
Br3390     Br  0.08541135  0.56976418  0.42944731    -0.03100
Br3391     Br  0.07870026  0.61781389  0.45117433    -0.04000
Br3392     Br  0.05807140  0.61117874  0.35980778     0.00000
C3393       C  0.07895133  0.67277919  0.33788949     0.01400
C3394       C  0.06979824  0.66407461  0.32218897     0.04200
C3395       C  0.06190872  0.67506778  0.30774196    -0.11900
C3396       C  0.06184881  0.69471655  0.30918303     0.23500
C3397       C  0.06829020  0.70337609  0.32572231    -0.12400
C3398       C  0.07585388  0.69240607  0.34043989     0.04900
C3399       C  0.05326652  0.70601418  0.29392610     0.27300
C3400       C  0.06350963  0.70966910  0.27729726    -0.13100
C3401       C  0.05465674  0.71854735  0.26194179     0.05400
C3402       C  0.03578608  0.72480074  0.26365606    -0.09100
C3403       C  0.02594354  0.72199461  0.28082287     0.06200
C3404       C  0.03441720  0.71192858  0.29556940    -0.13400
Br3405     Br  0.06623172  0.73037948  0.32825362    -0.05500
Br3406     Br  0.06576694  0.63723745  0.32045811     0.00100
Br3407     Br  0.06811282  0.72060184  0.23830190     0.00600
Br3408     Br  0.01991314  0.70541533  0.31774162    -0.03800
Br3409     Br  0.07719189  0.70403724  0.36487609     0.00700
Br3410     Br  0.05076055  0.66327530  0.28581608    -0.03100
Br3411     Br  0.08951373  0.70181636  0.27547844    -0.04000
Br3412     Br  0.00112273  0.73258895  0.28481875     0.00000
C3413       C  0.84300204  0.46947287  0.70668927     0.01400
C3414       C  0.85132809  0.45361955  0.71536571     0.04200
C3415       C  0.86193591  0.44090379  0.70451781    -0.11900
C3416       C  0.86393922  0.44378523  0.68497096     0.23500
C3417       C  0.85614174  0.45982284  0.67637746    -0.12400
C3418       C  0.84550384  0.47254778  0.68713966     0.04900
C3419       C  0.87300783  0.42920899  0.67322013     0.27300
C3420       C  0.89267686  0.42904491  0.67093822    -0.13100
C3421       C  0.90125777  0.41457390  0.66056233     0.05400
C3422       C  0.89016650  0.40007878  0.65252994    -0.09100
C3423       C  0.87035560  0.40110804  0.65374615     0.06200
C3424       C  0.86180656  0.41552927  0.66425814    -0.13400
Br3425     Br  0.85981913  0.46402223  0.64970724    -0.05500
Br3426     Br  0.84660746  0.44810143  0.74165086     0.00100
Br3427     Br  0.92804193  0.41577060  0.65615410     0.00600
Br3428     Br  0.83469784  0.41645166  0.66677503    -0.03800
Br3429     Br  0.83414208  0.49389707  0.67476515     0.00700
Br3430     Br  0.87329104  0.41914938  0.71622981    -0.03100
Br3431     Br  0.90774142  0.44874842  0.68207474    -0.04000
Br3432     Br  0.85477414  0.38288314  0.64120400     0.00000
C3433       C  0.93003321  0.39236948  0.60240637     0.01400
C3434       C  0.92512075  0.41169517  0.60015358     0.04200
C3435       C  0.93520542  0.42318282  0.58742937    -0.11900
C3436       C  0.94994821  0.41566704  0.57657862     0.23500
C3437       C  0.95404641  0.39636891  0.57764120    -0.12400
C3438       C  0.94393708  0.38467119  0.59015944     0.04900
C3439       C  0.96007100  0.42802880  0.56300665     0.27300
C3440       C  0.95302929  0.43008890  0.54463985    -0.13100
C3441       C  0.96103185  0.44343662  0.53232729     0.05400
C3442       C  0.97643937  0.45475917  0.53814827    -0.09100
C3443       C  0.98350366  0.45252265  0.55669041     0.06200
C3444       C  0.97540671  0.43909887  0.56898050    -0.13400
Br3445     Br  0.97339840  0.38602435  0.56154819    -0.05500
Br3446     Br  0.90461273  0.42344925  0.61351344     0.00100
Br3447     Br  0.95019050  0.44603733  0.50769944     0.00600
Br3448     Br  0.98470681  0.43625678  0.59437436    -0.03800
Br3449     Br  0.94793399  0.35777039  0.58862057     0.00700
Br3450     Br  0.92882419  0.44953120  0.58449443    -0.03100
Br3451     Br  0.93179549  0.41493525  0.53669885    -0.04000
Br3452     Br  0.00285351  0.46910719  0.56620166     0.00000
C3453       C  0.93356524  0.34366385  0.65528403     0.01400
C3454       C  0.94441605  0.35120883  0.67033241     0.04200
C3455       C  0.95132343  0.33939449  0.68471137    -0.11900
C3456       C  0.94809036  0.31990227  0.68395225     0.23500
C3457       C  0.94017229  0.31206166  0.66760263    -0.12400
C3458       C  0.93434781  0.32384003  0.65270045     0.04900
C3459       C  0.95446685  0.30771910  0.69978298     0.27300
C3460       C  0.97278860  0.30017895  0.69967363    -0.13100
C3461       C  0.97966433  0.29046711  0.71556660     0.05400
C3462       C  0.96824862  0.28835367  0.73192244    -0.09100
C3463       C  0.94941425  0.29508920  0.73149813     0.06200
C3464       C  0.94265559  0.30477974  0.71548631    -0.13400
Br3465     Br  0.93756599  0.28513521  0.66553657    -0.05500
Br3466     Br  0.95189026  0.37721628  0.67068809     0.00100
Br3467     Br  0.00458453  0.27948123  0.71418803     0.00600
Br3468     Br  0.91728115  0.31461824  0.71505267    -0.03800
Br3469     Br  0.93343732  0.31294175  0.62776800     0.00700
Br3470     Br  0.96534418  0.34980295  0.70559091    -0.03100
Br3471     Br  0.98857508  0.30357619  0.67769073    -0.04000
Br3472     Br  0.93283307  0.29214012  0.75295043     0.00000
C3473       C  0.95926500  0.48515127  0.43932114     0.01400
C3474       C  0.95595456  0.49441306  0.42196936     0.04200
C3475       C  0.94476485  0.48564882  0.40803646    -0.11900
C3476       C  0.93616745  0.46812053  0.41180377     0.23500
C3477       C  0.93974837  0.45884611  0.42893803    -0.12400
C3478       C  0.95213815  0.46682456  0.44203544     0.04900
C3479       C  0.92307712  0.45924888  0.39814180     0.27300
C3480       C  0.90371476  0.46320029  0.39929903    -0.13100
C3481       C  0.89073117  0.45270686  0.38865173     0.05400
C3482       C  0.89703306  0.43849065  0.37614080    -0.09100
C3483       C  0.91658156  0.43449405  0.37518301     0.06200
C3484       C  0.92950967  0.44490837  0.38609398    -0.13400
Br3485     Br  0.92746874  0.43519405  0.43459083    -0.05500
Br3486     Br  0.96656363  0.51898154  0.41723468     0.00100
Br3487     Br  0.86423054  0.45634382  0.39348127     0.00600
Br3488     Br  0.95614176  0.43928321  0.38511449    -0.03800
Br3489     Br  0.96173741  0.45132195  0.46201537     0.00700
Br3490     Br  0.94118881  0.49742516  0.38380185    -0.03100
Br3491     Br  0.89499140  0.48244662  0.41641835    -0.04000
Br3492     Br  0.92612014  0.41466229  0.35945879     0.00000
C3493       C  0.84425291  0.61960619  0.62293979     0.01400
C3494       C  0.85124347  0.62061421  0.64168906     0.04200
C3495       C  0.84365484  0.60900957  0.65603267    -0.11900
C3496       C  0.82981556  0.59547724  0.65176578     0.23500
C3497       C  0.82359896  0.59356726  0.63304754    -0.12400
C3498       C  0.83064754  0.60555639  0.61876226     0.04900
C3499       C  0.82232554  0.58273564  0.66682106     0.27300
C3500       C  0.83309195  0.56723288  0.67298822    -0.13100
C3501       C  0.82622403  0.55544293  0.68743586     0.05400
C3502       C  0.80789850  0.55806569  0.69478016    -0.09100
C3503       C  0.79713769  0.57361271  0.68872395     0.06200
C3504       C  0.80451390  0.58614110  0.67507616    -0.13400
Br3505     Br  0.80576821  0.57392598  0.62698281    -0.05500
Br3506     Br  0.87157560  0.63718061  0.64840271     0.00100
Br3507     Br  0.84270835  0.53688985  0.69854028     0.00600
Br3508     Br  0.79038774  0.60814339  0.66778548    -0.03800
Br3509     Br  0.82274629  0.60115501  0.59319236     0.00700
Br3510     Br  0.85215085  0.61156379  0.68179563    -0.03100
Br3511     Br  0.85722479  0.56202879  0.66150928    -0.04000
Br3512     Br  0.77220010  0.57752891  0.69883790     0.00000
C3513       C  0.88607346  0.61108320  0.57404616     0.01400
C3514       C  0.87971383  0.59993447  0.55860138     0.04200
C3515       C  0.89227760  0.58816327  0.54869685    -0.11900
C3516       C  0.91097716  0.58613486  0.55474906     0.23500
C3517       C  0.91694827  0.59517503  0.57124063    -0.12400
C3518       C  0.90465870  0.60727484  0.58117188     0.04900
C3519       C  0.92441894  0.57408097  0.54408545     0.27300
C3520       C  0.92697506  0.55510626  0.54927332    -0.13100
C3521       C  0.94057036  0.54403432  0.53998590     0.05400
C3522       C  0.95146780  0.55178798  0.52514680    -0.09100
C3523       C  0.94897707  0.57087118  0.52009534     0.06200
C3524       C  0.93544852  0.58193784  0.52951019    -0.13400
Br3525     Br  0.94257140  0.59103708  0.57981952    -0.05500
Br3526     Br  0.85331322  0.59846941  0.55196843     0.00100
Br3527     Br  0.94523665  0.51868355  0.54873630     0.00600
Br3528     Br  0.93200199  0.60799807  0.52262155    -0.03800
Br3529     Br  0.91474865  0.61718735  0.60445061     0.00700
Br3530     Br  0.88406135  0.57479899  0.52649435    -0.03100
Br3531     Br  0.91201485  0.54447001  0.56942449    -0.04000
Br3532     Br  0.96379634  0.58190960  0.50007708     0.00000
C3533       C  0.11608481  0.40085659  0.41600263     0.01400
C3534       C  0.09655345  0.40085458  0.41165712     0.04200
C3535       C  0.08431095  0.41377739  0.42041537    -0.11900
C3536       C  0.09114631  0.42613387  0.43426193     0.23500
C3537       C  0.11055369  0.42667561  0.43825843    -0.12400
C3538       C  0.12307830  0.41464232  0.42869161     0.04900
C3539       C  0.07794406  0.43886361  0.44437000     0.27300
C3540       C  0.07597138  0.45763073  0.43842316    -0.13100
C3541       C  0.06366032  0.46982989  0.44803040     0.05400
C3542       C  0.05302553  0.46330392  0.46374645    -0.09100
C3543       C  0.05478417  0.44424934  0.46938049     0.06200
C3544       C  0.06726587  0.43214680  0.45975501    -0.13400
Br3545     Br  0.11988169  0.44394591  0.45705585    -0.05500
Br3546     Br  0.08567255  0.38289645  0.39457446     0.00100
Br3547     Br  0.06197305  0.49556356  0.43940303     0.00600
Br3548     Br  0.06954753  0.40612040  0.46729035    -0.03800
Br3549     Br  0.14989029  0.41847406  0.43204964     0.00700
Br3550     Br  0.05795611  0.41467450  0.41356273    -0.03100
Br3551     Br  0.09004359  0.46644602  0.41674604    -0.04000
Br3552     Br  0.03914190  0.43405893  0.48925986     0.00000
C3553       C  0.10737438  0.58121009  0.61294684     0.01400
C3554       C  0.10472593  0.58696088  0.59385310     0.04200
C3555       C  0.09306168  0.57638112  0.58167564    -0.11900
C3556       C  0.08436605  0.55972066  0.58800596     0.23500
C3557       C  0.08640162  0.55423196  0.60692040    -0.12400
C3558       C  0.09691723  0.56541339  0.61948853     0.04900
C3559       C  0.07184800  0.54886173  0.57507920     0.27300
C3560       C  0.05222196  0.55191772  0.57546250    -0.13100
C3561       C  0.04043140  0.54290001  0.56231206     0.05400
C3562       C  0.04817639  0.53080963  0.54850180    -0.09100
C3563       C  0.06777957  0.52721544  0.54857804     0.06200
C3564       C  0.07955163  0.53620786  0.56185289    -0.13400
Br3565     Br  0.07449016  0.53133516  0.61560803    -0.05500
Br3566     Br  0.11626545  0.60920318  0.58340545     0.00100
Br3567     Br  0.01350924  0.54697734  0.56353179     0.00600
Br3568     Br  0.10637644  0.53171382  0.56166132    -0.03800
Br3569     Br  0.09409620  0.56055526  0.64604806     0.00700
Br3570     Br  0.08858030  0.58473429  0.55608813    -0.03100
Br3571     Br  0.04157863  0.56900009  0.59374318    -0.04000
Br3572     Br  0.07879920  0.51106495  0.52972181     0.00000
C3573       C  0.16121964  0.58381682  0.66295493     0.01400
C3574       C  0.15785023  0.56616138  0.67190325     0.04200
C3575       C  0.17239842  0.55693454  0.68191069    -0.11900
C3576       C  0.19037368  0.56520437  0.68337745     0.23500
C3577       C  0.19339803  0.58328525  0.67599009    -0.12400
C3578       C  0.17848565  0.59317726  0.66756698     0.04900
C3579       C  0.20563607  0.55578492  0.69425063     0.27300
C3580       C  0.21092743  0.56279522  0.71205234    -0.13100
C3581       C  0.22647555  0.55507713  0.72163132     0.05400
C3582       C  0.23565124  0.53888398  0.71445244    -0.09100
C3583       C  0.22949405  0.53122631  0.69703970     0.06200
C3584       C  0.21519356  0.54021359  0.68662987    -0.13400
Br3585     Br  0.21818492  0.59464211  0.67748446    -0.05500
Br3586     Br  0.13291675  0.55576123  0.67401827     0.00100
Br3587     Br  0.23579819  0.56799123  0.74371870     0.00600
Br3588     Br  0.20885150  0.53142630  0.66167140    -0.03800
Br3589     Br  0.18142821  0.62025562  0.66606607     0.00700
Br3590     Br  0.16767553  0.53309847  0.69428786    -0.03100
Br3591     Br  0.19672957  0.58304765  0.72339399    -0.04000
Br3592     Br  0.23948726  0.50779295  0.68756097     0.00000
C3593       C  0.96481214  0.72410382  0.75856442     0.01400
C3594       C  0.96637565  0.73209324  0.77677790     0.04200
C3595       C  0.95901317  0.72250035  0.79253954    -0.11900
C3596       C  0.95075858  0.70464657  0.79033324     0.23500
C3597       C  0.94962604  0.69641426  0.77233430    -0.12400
C3598       C  0.95624566  0.70624806  0.75642870     0.04900
C3599       C  0.94246714  0.69472074  0.80678181     0.27300
C3600       C  0.95309503  0.68139466  0.81667538    -0.13100
C3601       C  0.94447009  0.66983093  0.83039001     0.05400
C3602       C  0.92550869  0.67331440  0.83646333    -0.09100
C3603       C  0.91480224  0.68665018  0.82556428     0.06200
C3604       C  0.92333703  0.69710063  0.81094789    -0.13400
Br3605     Br  0.93883292  0.67160008  0.76956100    -0.05500
Br3606     Br  0.97955981  0.75559700  0.78062724     0.00100
Br3607     Br  0.95804748  0.64708976  0.83623629     0.00600
Br3608     Br  0.90867056  0.71423752  0.79552301    -0.03800
Br3609     Br  0.95245216  0.69549651  0.73170268     0.00700
Br3610     Br  0.96018665  0.73367135  0.81728340    -0.03100
Br3611     Br  0.97943902  0.67824679  0.81018921    -0.04000
Br3612     Br  0.88781417  0.69005244  0.82811051     0.00000
C3613       C  0.07484355  0.83722828  0.83862596     0.01400
C3614       C  0.05580280  0.83117084  0.84074494     0.04200
C3615       C  0.04608165  0.82292439  0.82553652    -0.11900
C3616       C  0.05571153  0.81837144  0.80887231     0.23500
C3617       C  0.07519597  0.82156460  0.80761882    -0.12400
C3618       C  0.08486110  0.83032022  0.82256334     0.04900
C3619       C  0.04570500  0.80873123  0.79324018     0.27300
C3620       C  0.04562060  0.78892102  0.79228548    -0.13100
C3621       C  0.03680002  0.77975773  0.77709056     0.05400
C3622       C  0.02802460  0.79039081  0.76273325    -0.09100
C3623       C  0.02779030  0.81024512  0.76394497     0.06200
C3624       C  0.03667190  0.81936143  0.77913938    -0.13400
Br3625     Br  0.08853566  0.81405905  0.78504666    -0.05500
Br3626     Br  0.04417755  0.82882721  0.86514555     0.00100
Br3627     Br  0.03618091  0.75259677  0.77639585     0.00600
Br3628     Br  0.03696915  0.84648003  0.78051132    -0.03800
Br3629     Br  0.11202787  0.83070445  0.82106001     0.00700
Br3630     Br  0.01942890  0.81755438  0.82748727    -0.03100
Br3631     Br  0.05782451  0.77440469  0.81179028    -0.04000
Br3632     Br  0.01626518  0.82515286  0.74431125     0.00000
C3633       C  0.04722895  0.70375972  0.69249793     0.01400
C3634       C  0.04690963  0.68587350  0.70126098     0.04200
C3635       C  0.05840828  0.67121411  0.69439330    -0.11900
C3636       C  0.07022602  0.67427067  0.67867374     0.23500
C3637       C  0.07030837  0.69198762  0.66969194    -0.12400
C3638       C  0.05881100  0.70665276  0.67650527     0.04900
C3639       C  0.08294012  0.65905199  0.67179029     0.27300
C3640       C  0.10196117  0.65884085  0.67733055    -0.13100
C3641       C  0.11442639  0.64525096  0.67000433     0.05400
C3642       C  0.10779913  0.63110262  0.65751686    -0.09100
C3643       C  0.08841224  0.63100869  0.65262064     0.06200
C3644       C  0.07619704  0.64514310  0.65941496    -0.13400
Br3645     Br  0.08598780  0.69594336  0.64774654    -0.05500
Br3646     Br  0.03100550  0.68147407  0.72295082     0.00100
Br3647     Br  0.14075232  0.64733392  0.67647266     0.00600
Br3648     Br  0.05009685  0.64567405  0.65171041    -0.03800
Br3649     Br  0.05790528  0.73021794  0.66293399     0.00700
Br3650     Br  0.05803551  0.64685542  0.70646494    -0.03100
Br3651     Br  0.11088377  0.67749502  0.69499402    -0.04000
Br3652     Br  0.07786288  0.61106522  0.63760117     0.00000
C3653       C  0.89359261  0.66479955  0.60927748     0.01400
C3654       C  0.91104289  0.66482412  0.59954419     0.04200
C3655       C  0.92670664  0.67423189  0.60719252    -0.11900
C3656       C  0.92467190  0.68463060  0.62389154     0.23500
C3657       C  0.90688562  0.68612693  0.63261203    -0.12400
C3658       C  0.89123971  0.67676592  0.62494901     0.04900
C3659       C  0.94082808  0.69503072  0.63191106     0.27300
C3660       C  0.95198368  0.68651274  0.64583593    -0.13100
C3661       C  0.96485782  0.69739512  0.65617994     0.05400
C3662       C  0.96618441  0.71708123  0.65297049    -0.09100
C3663       C  0.95643873  0.72508224  0.63746303     0.06200
C3664       C  0.94375136  0.71400632  0.62702411    -0.13400
Br3665     Br  0.90394023  0.70148934  0.65484191    -0.05500
Br3666     Br  0.91299146  0.65476691  0.57436538     0.00100
Br3667     Br  0.98091764  0.68488858  0.67432281     0.00600
Br3668     Br  0.92943849  0.72494783  0.60661418    -0.03800
Br3669     Br  0.86631467  0.68255999  0.63433505     0.00700
Br3670     Br  0.95082654  0.67350203  0.59455866    -0.03100
Br3671     Br  0.94882356  0.66003999  0.65123541    -0.04000
Br3672     Br  0.95930858  0.75126040  0.63069220     0.00000
C3673       C  0.67299342  0.16899098  0.57368969     0.01400
C3674       C  0.66641608  0.18613174  0.56563718     0.04200
C3675       C  0.67917530  0.19989728  0.55935140    -0.11900
C3676       C  0.69842135  0.19568666  0.55770270     0.23500
C3677       C  0.70482385  0.17755182  0.56238603    -0.12400
C3678       C  0.69221135  0.16414018  0.57013559     0.04900
C3679       C  0.71113768  0.20993571  0.54899269     0.27300
C3680       C  0.71069338  0.21270600  0.52931611    -0.13100
C3681       C  0.71899750  0.22884367  0.52130762     0.05400
C3682       C  0.72827587  0.24205853  0.53286096    -0.09100
C3683       C  0.73011822  0.23844157  0.55235797     0.06200
C3684       C  0.72137169  0.22249161  0.56043036    -0.13400
Br3685     Br  0.73088025  0.17118260  0.55781580    -0.05500
Br3686     Br  0.64076731  0.18924693  0.55743002     0.00100
Br3687     Br  0.71761222  0.23281506  0.49443315     0.00600
Br3688     Br  0.72249454  0.21823655  0.58726532    -0.03800
Br3689     Br  0.70122314  0.13867787  0.57329305     0.00700
Br3690     Br  0.67011444  0.22463741  0.55235138    -0.03100
Br3691     Br  0.69792515  0.19469649  0.51347800    -0.04000
Br3692     Br  0.74348944  0.25593644  0.56822771     0.00000
C3693       C  0.69752288  0.31156071  0.45352184     0.01400
C3694       C  0.68111831  0.30071546  0.45053415     0.04200
C3695       C  0.66572839  0.30846430  0.44059477    -0.11900
C3696       C  0.66676508  0.32698266  0.43346028     0.23500
C3697       C  0.68282630  0.33805880  0.43714720    -0.12400
C3698       C  0.69806424  0.33044047  0.44728027     0.04900
C3699       C  0.65188869  0.33425843  0.42057182     0.27300
C3700       C  0.65345003  0.33083209  0.40116599    -0.13100
C3701       C  0.64013411  0.33836465  0.38856202     0.05400
C3702       C  0.62442907  0.34879215  0.39514638    -0.09100
C3703       C  0.62395568  0.35357087  0.41463780     0.06200
C3704       C  0.63727234  0.34580454  0.42728686    -0.13400
Br3705     Br  0.68394361  0.36370083  0.42816186    -0.05500
Br3706     Br  0.67998303  0.27511145  0.45951414     0.00100
Br3707     Br  0.64560289  0.33679578  0.36217493     0.00600
Br3708     Br  0.63564454  0.35080475  0.45400507    -0.03800
Br3709     Br  0.71932203  0.34627597  0.45349182     0.00700
Br3710     Br  0.64315284  0.29385315  0.43664910    -0.03100
Br3711     Br  0.67426624  0.31591572  0.39185985    -0.04000
Br3712     Br  0.60672448  0.37188433  0.42458496     0.00000
C3713       C  0.80549481  0.31828380  0.54750388     0.01400
C3714       C  0.82308013  0.30884983  0.54829242     0.04200
C3715       C  0.83684490  0.31437305  0.56150964    -0.11900
C3716       C  0.83347025  0.32965187  0.57366419     0.23500
C3717       C  0.81595624  0.33891055  0.57316125    -0.12400
C3718       C  0.80197135  0.33322375  0.56027986     0.04900
C3719       C  0.84886949  0.33695956  0.58590298     0.27300
C3720       C  0.84990666  0.33184225  0.60504551    -0.13100
C3721       C  0.86434852  0.33916962  0.61659477     0.05400
C3722       C  0.87841482  0.35122528  0.60883353    -0.09100
C3723       C  0.87735425  0.35597236  0.58943206     0.06200
C3724       C  0.86244430  0.34922373  0.57822346    -0.13400
Br3725     Br  0.81138642  0.35976326  0.58998404    -0.05500
Br3726     Br  0.82929810  0.28939453  0.53034363     0.00100
Br3727     Br  0.86387242  0.33313324  0.64319869     0.00600
Br3728     Br  0.86050885  0.35669596  0.55206272    -0.03800
Br3729     Br  0.77794590  0.34598881  0.56072968     0.00700
Br3730     Br  0.86067838  0.30133336  0.56279074    -0.03100
Br3731     Br  0.83142101  0.31464157  0.61529161    -0.04000
Br3732     Br  0.89681919  0.37047894  0.57723409     0.00000
C3733       C  0.65718198  0.39434886  0.60404499     0.01400
C3734       C  0.67061679  0.40408008  0.59273763     0.04200
C3735       C  0.68016407  0.39476987  0.57814255    -0.11900
C3736       C  0.67562712  0.37606096  0.57386406     0.23500
C3737       C  0.66093281  0.36690833  0.58356955    -0.12400
C3738       C  0.65202815  0.37576796  0.59892718     0.04900
C3739       C  0.68780480  0.36532381  0.56081402     0.27300
C3740       C  0.68557051  0.36683433  0.54112568    -0.13100
C3741       C  0.69779106  0.35693483  0.52903070     0.05400
C3742       C  0.71183975  0.34517534  0.53668325    -0.09100
C3743       C  0.71354941  0.34316346  0.55634107     0.06200
C3744       C  0.70192928  0.35363041  0.56838793    -0.13400
Br3745     Br  0.65355193  0.34188682  0.57595041    -0.05500
Br3746     Br  0.67519455  0.43061496  0.59567652     0.00100
Br3747     Br  0.69478311  0.35873094  0.50207076     0.00600
Br3748     Br  0.70541655  0.35205971  0.59535287    -0.03800
Br3749     Br  0.63382171  0.36149442  0.61319072     0.00700
Br3750     Br  0.69997166  0.40742880  0.56423951    -0.03100
Br3751     Br  0.66557326  0.38212916  0.53090172    -0.04000
Br3752     Br  0.73138175  0.32551411  0.56678139     0.00000
C3753       C  0.79339193  0.34629015  0.45431102     0.01400
C3754       C  0.78941899  0.36474704  0.44803792     0.04200
C3755       C  0.80215160  0.37413808  0.43586705    -0.11900
C3756       C  0.81885434  0.36514494  0.42987970     0.23500
C3757       C  0.82334313  0.34721592  0.43704233    -0.12400
C3758       C  0.81071415  0.33784467  0.44921884     0.04900
C3759       C  0.83069201  0.37370569  0.41468625     0.27300
C3760       C  0.82694593  0.36922804  0.39576899    -0.13100
C3761       C  0.83694275  0.37822902  0.38112898     0.05400
C3762       C  0.85094280  0.39191802  0.38518502    -0.09100
C3763       C  0.85591157  0.39492764  0.40430448     0.06200
C3764       C  0.84560157  0.38607427  0.41895259    -0.13400
Br3765     Br  0.84671220  0.33537856  0.42976603    -0.05500
Br3766     Br  0.76612583  0.37678604  0.45514512     0.00100
Br3767     Br  0.83181635  0.37076298  0.35555399     0.00600
Br3768     Br  0.85159642  0.39097266  0.44500666    -0.03800
Br3769     Br  0.81748732  0.31351199  0.45933759     0.00700
Br3770     Br  0.79661659  0.39918315  0.42690658    -0.03100
Br3771     Br  0.80785337  0.35068649  0.38999235    -0.04000
Br3772     Br  0.87659716  0.41106515  0.41098530     0.00000
C3773       C  0.16154339  0.89716355  0.62498386     0.01400
C3774       C  0.17262514  0.91319665  0.62087922     0.04200
C3775       C  0.17955166  0.92451369  0.63562277    -0.11900
C3776       C  0.17662553  0.91914957  0.65455645     0.23500
C3777       C  0.16742864  0.90202491  0.65861404    -0.12400
C3778       C  0.16044674  0.89077971  0.64385141     0.04900
C3779       C  0.18348547  0.93135107  0.67015782     0.27300
C3780       C  0.20264492  0.93107741  0.67558419    -0.13100
C3781       C  0.20921213  0.94349323  0.68960961     0.05400
C3782       C  0.19653016  0.95572016  0.69868129    -0.09100
C3783       C  0.17720871  0.95516786  0.69407185     0.06200
C3784       C  0.17076252  0.94332457  0.67957452    -0.13400
Br3785     Br  0.16465776  0.89390594  0.68446318    -0.05500
Br3786     Br  0.18027935  0.91847128  0.59525542     0.00100
Br3787     Br  0.23554945  0.94403903  0.69627994     0.00600
Br3788     Br  0.14450626  0.94358321  0.67244952    -0.03800
Br3789     Br  0.15220067  0.86547368  0.64941938     0.00700
Br3790     Br  0.19298335  0.94746593  0.62992368    -0.03100
Br3791     Br  0.21977169  0.91353454  0.66393636    -0.04000
Br3792     Br  0.15946902  0.97015504  0.70820438     0.00000
C3793       C  0.04375732  0.80077155  0.66688113     0.01400
C3794       C  0.03564796  0.81610410  0.65701486     0.04200
C3795       C  0.04733997  0.82925876  0.64785296    -0.11900
C3796       C  0.06704871  0.82760638  0.64918809     0.23500
C3797       C  0.07515625  0.81306660  0.65990672    -0.12400
C3798       C  0.06361804  0.79943083  0.66841738     0.04900
C3799       C  0.07945627  0.83932402  0.63725138     0.27300
C3800       C  0.08400060  0.83289546  0.61919920    -0.13100
C3801       C  0.09819005  0.84185033  0.60871061     0.05400
C3802       C  0.10836170  0.85742807  0.61637748    -0.09100
C3803       C  0.10181917  0.86520335  0.63378071     0.06200
C3804       C  0.08779147  0.85574179  0.64431421    -0.13400
Br3805     Br  0.10228104  0.81145949  0.66212968    -0.05500
Br3806     Br  0.00863901  0.81980531  0.65653452     0.00100
Br3807     Br  0.10245076  0.83229762  0.58357727     0.00600
Br3808     Br  0.08032268  0.86454750  0.66899746    -0.03800
Br3809     Br  0.07547613  0.77829093  0.68086397     0.00700
Br3810     Br  0.03654275  0.84918187  0.63281833    -0.03100
Br3811     Br  0.07115008  0.81093883  0.60931310    -0.04000
Br3812     Br  0.11095444  0.88855573  0.64419830     0.00000
C3813       C  0.05183180  0.96019397  0.52522765     0.01400
C3814       C  0.06898492  0.95547683  0.51628107     0.04200
C3815       C  0.08229288  0.94406053  0.52565320    -0.11900
C3816       C  0.07854718  0.93728421  0.54399847     0.23500
C3817       C  0.06150008  0.94212179  0.55299047    -0.12400
C3818       C  0.04837538  0.95381173  0.54378436     0.04900
C3819       C  0.09233403  0.92470386  0.55365013     0.27300
C3820       C  0.09249856  0.90541384  0.54957127    -0.13100
C3821       C  0.10575737  0.89344236  0.55824720     0.05400
C3822       C  0.11879453  0.90042074  0.57176873    -0.09100
C3823       C  0.11784248  0.91986302  0.57636524     0.06200
C3824       C  0.10500896  0.93191795  0.56703796    -0.13400
Br3825     Br  0.05606945  0.93249582  0.57788919    -0.05500
Br3826     Br  0.07412668  0.96429276  0.49104240     0.00100
Br3827     Br  0.10446553  0.86734691  0.55195212     0.00600
Br3828     Br  0.10452327  0.95851801  0.57258218    -0.03800
Br3829     Br  0.02635928  0.96232043  0.55724283     0.00700
Br3830     Br  0.10564532  0.93744301  0.51335509    -0.03100
Br3831     Br  0.07381493  0.89538105  0.53243096    -0.04000
Br3832     Br  0.13373464  0.93067383  0.59537866     0.00000
C3833       C  0.16390783  0.04637143  0.70742327     0.01400
C3834       C  0.16155510  0.06530848  0.71277137     0.04200
C3835       C  0.15210414  0.07792330  0.70076222    -0.11900
C3836       C  0.14567122  0.07183714  0.68301779     0.23500
C3837       C  0.14879231  0.05314758  0.67725950    -0.12400
C3838       C  0.15783915  0.04041252  0.68946809     0.04900
C3839       C  0.13455178  0.08479807  0.67100430     0.27300
C3840       C  0.11479746  0.08450621  0.67227354    -0.13100
C3841       C  0.10406077  0.09744701  0.66188491     0.05400
C3842       C  0.11301657  0.11146935  0.65080256    -0.09100
C3843       C  0.13280901  0.11087148  0.64857138     0.06200
C3844       C  0.14354906  0.09756770  0.65870622    -0.13400
Br3845     Br  0.14063309  0.04512100  0.65261793    -0.05500
Br3846     Br  0.17273607  0.07438251  0.73574485     0.00100
Br3847     Br  0.07707288  0.09454630  0.66169503     0.00600
Br3848     Br  0.17064726  0.09705938  0.65628615    -0.03800
Br3849     Br  0.16205899  0.01483902  0.68150331     0.00700
Br3850     Br  0.14788190  0.10358304  0.70855057    -0.03100
Br3851     Br  0.10250010  0.06660583  0.68879967    -0.04000
Br3852     Br  0.14544398  0.12815816  0.63191699     0.00000
C3853       C  0.06655334  0.11722959  0.60576423     0.01400
C3854       C  0.05137587  0.12450856  0.59487843     0.04200
C3855       C  0.04063348  0.11255481  0.58326154    -0.11900
C3856       C  0.04532513  0.09343463  0.58166667     0.23500
C3857       C  0.06050930  0.08610089  0.59201122    -0.12400
C3858       C  0.07133831  0.09789868  0.60371073     0.04900
C3859       C  0.03600814  0.08149382  0.56727765     0.27300
C3860       C  0.02124889  0.06916761  0.57229693    -0.13100
C3861       C  0.01398282  0.05645797  0.55891720     0.05400
C3862       C  0.02131836  0.05626573  0.54034559    -0.09100
C3863       C  0.03552060  0.06925991  0.53520688     0.06200
C3864       C  0.04295747  0.08167270  0.54867518    -0.13400
Br3865     Br  0.06643310  0.05960225  0.58986539    -0.05500
Br3866     Br  0.04634758  0.15124163  0.59382536     0.00100
Br3867     Br  0.99500763  0.03845005  0.56662119     0.00600
Br3868     Br  0.06319207  0.09863295  0.54185987    -0.03800
Br3869     Br  0.09285535  0.08676913  0.61587131     0.00700
Br3870     Br  0.01947689  0.12227024  0.56918120    -0.03100
Br3871     Br  0.01153954  0.06933649  0.59771793    -0.04000
Br3872     Br  0.04451381  0.07060911  0.50956998     0.00000
C3873       C  0.06694247  0.16550823  0.65863863     0.01400
C3874       C  0.05998778  0.15797738  0.67586270     0.04200
C3875       C  0.05447622  0.16990168  0.69063624    -0.11900
C3876       C  0.05311091  0.18938429  0.68759220     0.23500
C3877       C  0.05659308  0.19668967  0.66944761    -0.12400
C3878       C  0.06269723  0.18471009  0.65479188     0.04900
C3879       C  0.04557278  0.20163863  0.70282681     0.27300
C3880       C  0.02605269  0.20170769  0.70666847    -0.13100
C3881       C  0.01891895  0.21217790  0.72189854     0.05400
C3882       C  0.03123286  0.22284893  0.73330094    -0.09100
C3883       C  0.05069794  0.22323604  0.72910146     0.06200
C3884       C  0.05786692  0.21248579  0.71401241    -0.13400
Br3885     Br  0.05255652  0.22312078  0.66466838    -0.05500
Br3886     Br  0.05376047  0.13178500  0.67825380     0.00100
Br3887     Br  0.99211440  0.21214029  0.72685923     0.00600
Br3888     Br  0.08462372  0.21185756  0.70911988    -0.03800
Br3889     Br  0.06034844  0.19379217  0.62918065     0.00700
Br3890     Br  0.04861788  0.15946277  0.71516176    -0.03100
Br3891     Br  0.00912465  0.18701940  0.69124967    -0.04000
Br3892     Br  0.06771815  0.23754869  0.74469606     0.00000
C3893       C  0.04828532  0.03097796  0.44294787     0.01400
C3894       C  0.04513004  0.02935648  0.42315071     0.04200
C3895       C  0.05687066  0.03892443  0.41008558    -0.11900
C3896       C  0.07192929  0.05018717  0.41635294     0.23500
C3897       C  0.07548471  0.05163197  0.43576987    -0.12400
C3898       C  0.06416325  0.04185569  0.44897764     0.04900
C3899       C  0.08424210  0.06050150  0.40258330     0.27300
C3900       C  0.10211521  0.05338846  0.39782843    -0.13100
C3901       C  0.11442328  0.06379000  0.38607457     0.05400
C3902       C  0.10843978  0.08094231  0.37749508    -0.09100
C3903       C  0.09024805  0.08797143  0.38249164     0.06200
C3904       C  0.07853529  0.07795230  0.39519483    -0.13400
Br3905     Br  0.09589301  0.06766414  0.44419008    -0.05500
Br3906     Br  0.02558889  0.01325088  0.41312363     0.00100
Br3907     Br  0.14009142  0.05496055  0.38398826     0.00600
Br3908     Br  0.05448276  0.08819764  0.40294649    -0.03800
Br3909     Br  0.07142094  0.04394192  0.47516297     0.00700
Br3910     Br  0.05244981  0.03675124  0.38330722    -0.03100
Br3911     Br  0.10975841  0.02924677  0.40781863    -0.04000
Br3912     Br  0.08020680  0.11104009  0.37232087     0.00000
C3913       C  0.15763698  0.08569727  0.32319564     0.01400
C3914       C  0.15385484  0.06750466  0.31582989     0.04200
C3915       C  0.16845994  0.05703036  0.30733168    -0.11900
C3916       C  0.18619582  0.06536916  0.30415232     0.23500
C3917       C  0.18857212  0.08469824  0.30762888    -0.12400
C3918       C  0.17411347  0.09502387  0.31645480     0.04900
C3919       C  0.20223546  0.05420662  0.29654766     0.27300
C3920       C  0.21594945  0.04699060  0.30897619    -0.13100
C3921       C  0.23226907  0.03821579  0.30184833     0.05400
C3922       C  0.23479742  0.03628511  0.28221996    -0.09100
C3923       C  0.22073261  0.04295028  0.26978705     0.06200
C3924       C  0.20455941  0.05198981  0.27694269    -0.13400
Br3925     Br  0.21191103  0.09688361  0.30055137    -0.05500
Br3926     Br  0.12826512  0.05881052  0.31239824     0.00100
Br3927     Br  0.25178538  0.03010343  0.31897097     0.00600
Br3928     Br  0.18571592  0.06174808  0.25994158    -0.03800
Br3929     Br  0.17661313  0.12211409  0.31773213     0.00700
Br3930     Br  0.16421617  0.03126544  0.29995807    -0.03100
Br3931     Br  0.21247247  0.04957052  0.33582924    -0.04000
Br3932     Br  0.22335150  0.03934971  0.24293027     0.00000
C3933       C  0.88783331  0.88265186  0.65481603     0.01400
C3934       C  0.90699067  0.88202155  0.64891038     0.04200
C3935       C  0.91914796  0.86759183  0.65534819    -0.11900
C3936       C  0.91257824  0.85377906  0.66801685     0.23500
C3937       C  0.89367025  0.85419231  0.67393864    -0.12400
C3938       C  0.88130970  0.86821532  0.66715747     0.04900
C3939       C  0.92534464  0.83842796  0.67474051     0.27300
C3940       C  0.92490471  0.82065262  0.66599420    -0.13100
C3941       C  0.93635481  0.80589985  0.67273216     0.05400
C3942       C  0.94928012  0.80905129  0.68755795    -0.09100
C3943       C  0.94960767  0.82687859  0.69641473     0.06200
C3944       C  0.93741984  0.84134997  0.69024415    -0.13400
Br3945     Br  0.88477893  0.83521197  0.69142819    -0.05500
Br3946     Br  0.91741691  0.90103905  0.63259775     0.00100
Br3947     Br  0.93313683  0.78097883  0.66254164     0.00600
Br3948     Br  0.93716704  0.86528901  0.70299918    -0.03800
Br3949     Br  0.85515179  0.86612496  0.67391806     0.00700
Br3950     Br  0.94501969  0.86654351  0.64683906    -0.03100
Br3951     Br  0.90861884  0.81661305  0.64460208    -0.04000
Br3952     Br  0.96729501  0.83199882  0.71641726     0.00000
C3953       C  0.88932750  0.93517663  0.61368396     0.01400
C3954       C  0.90330094  0.94750281  0.62101539     0.04200
C3955       C  0.91578709  0.95721764  0.60880970    -0.11900
C3956       C  0.91452928  0.95485171  0.58915344     0.23500
C3957       C  0.90096594  0.94246837  0.58177369    -0.12400
C3958       C  0.88878564  0.93235075  0.59386664     0.04900
C3959       C  0.92845847  0.96390474  0.57608909     0.27300
C3960       C  0.92447362  0.98126363  0.56738347    -0.13100
C3961       C  0.93657241  0.98860747  0.55325182     0.05400
C3962       C  0.95300122  0.97853146  0.54757562    -0.09100
C3963       C  0.95700614  0.96114756  0.55685945     0.06200
C3964       C  0.94488347  0.95409234  0.57102918    -0.13400
Br3965     Br  0.89933625  0.93932423  0.55473401    -0.05500
Br3966     Br  0.90693042  0.94973276  0.64789017     0.00100
Br3967     Br  0.92933968  0.01191882  0.54116024     0.00600
Br3968     Br  0.95045540  0.93052919  0.58356276    -0.03800
Br3969     Br  0.87205974  0.91450424  0.58240201     0.00700
Br3970     Br  0.93507163  0.97348036  0.61890294    -0.03100
Br3971     Br  0.90192530  0.99464266  0.57464659    -0.04000
Br3972     Br  0.97902467  0.94632355  0.55084805     0.00000
C3973       C  0.83763995  0.93357110  0.66600359     0.01400
C3974       C  0.83984907  0.95267175  0.67165715     0.04200
C3975       C  0.82453194  0.96264168  0.67964529    -0.11900
C3976       C  0.80751085  0.95334374  0.68386523     0.23500
C3977       C  0.80598210  0.93397087  0.68057339    -0.12400
C3978       C  0.82111040  0.92399144  0.67255994     0.04900
C3979       C  0.79210131  0.96301377  0.69434296     0.27300
C3980       C  0.79208370  0.96254908  0.71421645    -0.13100
C3981       C  0.77656611  0.96958890  0.72438121     0.05400
C3982       C  0.76099895  0.97729498  0.71476621    -0.09100
C3983       C  0.76105297  0.97791791  0.69487771     0.06200
C3984       C  0.77659232  0.97082332  0.68468417    -0.13400
Br3985     Br  0.78270352  0.92114186  0.68694140    -0.05500
Br3986     Br  0.86444276  0.96408515  0.67362341     0.00100
Br3987     Br  0.77682907  0.96897223  0.75153132     0.00600
Br3988     Br  0.77663002  0.97153027  0.65751649    -0.03800
Br3989     Br  0.81875009  0.89694360  0.67187818     0.00700
Br3990     Br  0.82675406  0.98914727  0.68508583    -0.03100
Br3991     Br  0.81335731  0.95199343  0.72747802    -0.04000
Br3992     Br  0.73939611  0.98767122  0.68164147     0.00000
C3993       C  0.88460416  0.11326135  0.41998180     0.01400
C3994       C  0.87786792  0.10083382  0.43422050     0.04200
C3995       C  0.89024561  0.08842677  0.44363426    -0.11900
C3996       C  0.90918841  0.08694177  0.43796013     0.23500
C3997       C  0.91572497  0.09800182  0.42283165    -0.12400
C3998       C  0.90372053  0.11124167  0.41401383     0.04900
C3999       C  0.92222163  0.07344244  0.44758082     0.27300
C4000       C  0.93345871  0.07948621  0.46277269    -0.13100
C4001       C  0.94633065  0.06701552  0.47141825     0.05400
C4002       C  0.94823604  0.04830238  0.46481695    -0.09100
C4003       C  0.93680377  0.04226267  0.44961757     0.06200
C4004       C  0.92380256  0.05474859  0.44116657    -0.13400
Br4005     Br  0.94142576  0.09475376  0.41424623    -0.05500
Br4006     Br  0.85122287  0.09850286  0.43923137     0.00100
Br4007     Br  0.96208178  0.07618589  0.49160854     0.00600
Br4008     Br  0.90803435  0.04635775  0.42068167    -0.03800
Br4009     Br  0.91445566  0.12602362  0.39390645     0.00700
Br4010     Br  0.88129527  0.07323096  0.46439577    -0.03100
Br4011     Br  0.93133799  0.10511328  0.47146839    -0.04000
Br4012     Br  0.93831244  0.01667569  0.44062613     0.00000
C4013       C  0.83329519  0.16665088  0.42080571     0.01400
C4014       C  0.82687694  0.16429154  0.43971137     0.04200
C4015       C  0.81795690  0.17931448  0.44931500    -0.11900
C4016       C  0.81421985  0.19637381  0.43995642     0.23500
C4017       C  0.81807435  0.19794734  0.42064712    -0.12400
C4018       C  0.82673947  0.18303768  0.41093296     0.04900
C4019       C  0.80522263  0.21250591  0.44989160     0.27300
C4020       C  0.78562106  0.21539768  0.44843489    -0.13100
C4021       C  0.77736749  0.23188751  0.45571961     0.05400
C4022       C  0.78864234  0.24551701  0.46486378    -0.09100
C4023       C  0.80826960  0.24239305  0.46660645     0.06200
C4024       C  0.81649591  0.22597505  0.45909286    -0.13400
Br4025     Br  0.81151660  0.22098395  0.40753019    -0.05500
Br4026     Br  0.82605667  0.13991699  0.45156476     0.00100
Br4027     Br  0.75046166  0.23531569  0.45355830     0.00600
Br4028     Br  0.84334445  0.22199477  0.46097607    -0.03800
Br4029     Br  0.82829781  0.18569613  0.38381635     0.00700
Br4030     Br  0.81027668  0.17658058  0.47530031    -0.03100
Br4031     Br  0.77014346  0.19666763  0.43626334    -0.04000
Br4032     Br  0.82421747  0.26103577  0.47831886     0.00000
C4033       C  0.92244425  0.88829523  0.39144549     0.01400
C4034       C  0.92063193  0.90820176  0.39175495     0.04200
C4035       C  0.93151153  0.91908438  0.40423726    -0.11900
C4036       C  0.94402328  0.91037525  0.41684935     0.23500
C4037       C  0.94500316  0.89063317  0.41764093    -0.12400
C4038       C  0.93424011  0.87962783  0.40508425     0.04900
C4039       C  0.95563253  0.92235026  0.42949426     0.27300
C4040       C  0.97227674  0.93083347  0.42259700    -0.13100
C4041       C  0.98153330  0.94480433  0.43323823     0.05400
C4042       C  0.97416929  0.95030191  0.45087346    -0.09100
C4043       C  0.95776699  0.94135204  0.45797206     0.06200
C4044       C  0.94868676  0.92729020  0.44740301    -0.13400
Br4045     Br  0.96079667  0.87877763  0.43633237    -0.05500
Br4046     Br  0.90345175  0.92145188  0.37563017     0.00100
Br4047     Br  0.00437314  0.95616592  0.42374638     0.00600
Br4048     Br  0.92624932  0.91521292  0.45709646    -0.03800
Br4049     Br  0.93430761  0.85268938  0.40824830     0.00700
Br4050     Br  0.92927010  0.94625149  0.40435284    -0.03100
Br4051     Br  0.98202504  0.92348389  0.39829960    -0.04000
Br4052     Br  0.94662588  0.94938529  0.48152166     0.00000
C4053       C  0.91619870  0.83778442  0.33897685     0.01400
C4054       C  0.93281884  0.82758896  0.34358714     0.04200
C4055       C  0.94243598  0.81718861  0.32965366    -0.11900
C4056       C  0.93501619  0.81579294  0.31136784     0.23500
C4057       C  0.91718913  0.82335578  0.30746000    -0.12400
C4058       C  0.90727504  0.83320409  0.32150810     0.04900
C4059       C  0.94554296  0.80562182  0.29641796     0.27300
C4060       C  0.95890938  0.81530386  0.28548256    -0.13100
C4061       C  0.96891813  0.80590128  0.27117571     0.05400
C4062       C  0.96468570  0.78675957  0.26676237    -0.09100
C4063       C  0.95125615  0.77704393  0.27819571     0.06200
C4064       C  0.94206048  0.78644171  0.29309683    -0.13400
Br4065     Br  0.90644105  0.82024055  0.28262503    -0.05500
Br4066     Br  0.94072357  0.82423810  0.36929206     0.00100
Br4067     Br  0.98917528  0.81966959  0.25897637     0.00600
Br4068     Br  0.92437882  0.77318600  0.30911902    -0.03800
Br4069     Br  0.88065492  0.83730339  0.31715473     0.00700
Br4070     Br  0.96578482  0.80449821  0.33550398    -0.03100
Br4071     Br  0.96325134  0.84175784  0.29019709    -0.04000
Br4072     Br  0.94442777  0.75104195  0.27380283     0.00000
C4073       C  0.71075211  0.74341978  0.46475966     0.01400
C4074       C  0.69121817  0.74373479  0.46019667     0.04200
C4075       C  0.68263003  0.72807745  0.45140281    -0.11900
C4076       C  0.69339354  0.71216235  0.44659612     0.23500
C4077       C  0.71288259  0.71207211  0.45023121    -0.12400
C4078       C  0.72147818  0.72733668  0.45955162     0.04900
C4079       C  0.68436567  0.69538447  0.43770538     0.27300
C4080       C  0.68013467  0.67935945  0.44863399    -0.13100
C4081       C  0.67321092  0.66283683  0.44003710     0.05400
C4082       C  0.66763309  0.66308965  0.42077686    -0.09100
C4083       C  0.67458308  0.67828858  0.40956772     0.06200
C4084       C  0.68235018  0.69447136  0.41803802    -0.13400
Br4085     Br  0.72783799  0.69080446  0.44217479    -0.05500
Br4086     Br  0.67600241  0.76581031  0.46479867     0.00100
Br4087     Br  0.67812805  0.63945245  0.45306505     0.00600
Br4088     Br  0.69047928  0.71550658  0.40270964    -0.03800
Br4089     Br  0.74785018  0.72508872  0.46583879     0.00700
Br4090     Br  0.65602910  0.72832752  0.44563754    -0.03100
Br4091     Br  0.68436356  0.67994467  0.47550107    -0.04000
Br4092     Br  0.67611843  0.67644402  0.38254170     0.00000
C4093       C  0.83888429  0.66564316  0.56552273     0.01400
C4094       C  0.84838959  0.67944497  0.55429504     0.04200
C4095       C  0.83842367  0.69472087  0.54635967    -0.11900
C4096       C  0.81865186  0.69554880  0.54775659     0.23500
C4097       C  0.80891437  0.68006898  0.55551103    -0.12400
C4098       C  0.81888017  0.66492833  0.56384750     0.04900
C4099       C  0.80799762  0.71234483  0.54058602     0.27300
C4100       C  0.80133871  0.72598503  0.55328115    -0.13100
C4101       C  0.79022998  0.74129466  0.54693807     0.05400
C4102       C  0.78616352  0.74370080  0.52733565    -0.09100
C4103       C  0.79440805  0.73046943  0.51449732     0.06200
C4104       C  0.80446313  0.71462751  0.52123231    -0.13400
Br4105     Br  0.78171859  0.67957694  0.55414797    -0.05500
Br4106     Br  0.87497958  0.67733460  0.54855204     0.00100
Br4107     Br  0.78168952  0.75893157  0.56585233     0.00600
Br4108     Br  0.81331307  0.69555279  0.50392053    -0.03800
Br4109     Br  0.80503564  0.64198960  0.56831345     0.00700
Br4110     Br  0.85193613  0.71487917  0.53394014    -0.03100
Br4111     Br  0.80788993  0.72357542  0.57963034    -0.04000
Br4112     Br  0.79337935  0.73347771  0.48738733     0.00000
C4113       C  0.69417526  0.81159500  0.55272805     0.01400
C4114       C  0.69478445  0.83121915  0.55585391     0.04200
C4115       C  0.68150145  0.83989734  0.56782830    -0.11900
C4116       C  0.66711945  0.82914336  0.57641223     0.23500
C4117       C  0.66639443  0.80953879  0.57319260    -0.12400
C4118       C  0.67989608  0.80079730  0.56140275     0.04900
C4119       C  0.65256425  0.83860728  0.58841381     0.27300
C4120       C  0.65490667  0.83966322  0.60807911    -0.13100
C4121       C  0.64144477  0.84904445  0.61932796     0.05400
C4122       C  0.62493942  0.85678589  0.61120478    -0.09100
C4123       C  0.62314195  0.85645848  0.59133659     0.06200
C4124       C  0.63680933  0.84734142  0.58005819    -0.13400
Br4125     Br  0.64663307  0.79479630  0.58469998    -0.05500
Br4126     Br  0.71320634  0.84646199  0.54276206     0.00100
Br4127     Br  0.64682136  0.85273847  0.64559673     0.00600
Br4128     Br  0.63388491  0.84642672  0.55301775    -0.03800
Br4129     Br  0.67873203  0.77412517  0.55681039     0.00700
Br4130     Br  0.68276808  0.86665094  0.57231477    -0.03100
Br4131     Br  0.67664081  0.82806054  0.61958530    -0.04000
Br4132     Br  0.60222702  0.86850816  0.57915800     0.00000
C4133       C  0.79524944  0.81714346  0.45161455     0.01400
C4134       C  0.79389151  0.83443625  0.44162178     0.04200
C4135       C  0.80853435  0.84026092  0.42952575    -0.11900
C4136       C  0.82470700  0.82906671  0.42730979     0.23500
C4137       C  0.82619930  0.81186595  0.43707216    -0.12400
C4138       C  0.81156757  0.80587961  0.44920305     0.04900
C4139       C  0.84011036  0.83563829  0.41467235     0.27300
C4140       C  0.83916533  0.83199212  0.39524547    -0.13100
C4141       C  0.85280061  0.83958815  0.38295407     0.05400
C4142       C  0.86802521  0.85040901  0.39007163    -0.09100
C4143       C  0.86861796  0.85434555  0.40964275     0.06200
C4144       C  0.85477802  0.84685767  0.42184829    -0.13400
Br4145     Br  0.84857249  0.79674379  0.43395291    -0.05500
Br4146     Br  0.77195833  0.85039241  0.44384227     0.00100
Br4147     Br  0.84929321  0.83636676  0.35620312     0.00600
Br4148     Br  0.85576930  0.85183782  0.44859381    -0.03800
Br4149     Br  0.81480778  0.78285424  0.46336690     0.00700
Br4150     Br  0.80662953  0.86377432  0.41586407    -0.03100
Br4151     Br  0.81891567  0.81661772  0.38555113    -0.04000
Br4152     Br  0.88808491  0.86984985  0.42032079     0.00000
C4153       C  0.84013761  0.89407031  0.60802351     0.01400
C4154       C  0.84168619  0.87462226  0.60445577     0.04200
C4155       C  0.83053058  0.86623067  0.59034836    -0.11900
C4156       C  0.81732765  0.87707417  0.58019093     0.23500
C4157       C  0.81617727  0.89657324  0.58326059    -0.12400
C4158       C  0.82778597  0.90514493  0.59680043     0.04900
C4159       C  0.80368962  0.86768508  0.56738740     0.27300
C4160       C  0.80663385  0.86760673  0.54773234    -0.13100
C4161       C  0.79424908  0.85756549  0.53589941     0.05400
C4162       C  0.77908784  0.84722852  0.54377469    -0.09100
C4163       C  0.77566016  0.84815745  0.56337364     0.06200
C4164       C  0.78781975  0.85850345  0.57508677    -0.13400
Br4165     Br  0.79803159  0.91140244  0.56943046    -0.05500
Br4166     Br  0.85790005  0.85909824  0.61972448     0.00100
Br4167     Br  0.79887884  0.85712503  0.50906182     0.00600
Br4168     Br  0.78290073  0.86004718  0.60183250    -0.03800
Br4169     Br  0.82705384  0.93229213  0.59925506     0.00700
Br4170     Br  0.83273477  0.83965439  0.58530003    -0.03100
Br4171     Br  0.82802456  0.88077264  0.53717620    -0.04000
Br4172     Br  0.75409207  0.83555655  0.57428014     0.00000
C4173       C  0.70121489  0.84179025  0.46054494     0.01400
C4174       C  0.68490572  0.85108502  0.46698827     0.04200
C4175       C  0.67378177  0.86148611  0.45426310    -0.11900
C4176       C  0.67894285  0.86250296  0.43508267     0.23500
C4177       C  0.69522382  0.85311445  0.42866449    -0.12400
C4178       C  0.70621057  0.84259420  0.44133834     0.04900
C4179       C  0.66731396  0.87326479  0.42144556     0.27300
C4180       C  0.65377287  0.86390371  0.41042706    -0.13100
C4181       C  0.64447054  0.87349401  0.39574016     0.05400
C4182       C  0.64850200  0.89267920  0.39214243    -0.09100
C4183       C  0.66136338  0.90228660  0.40408631     0.06200
C4184       C  0.67078287  0.89253026  0.41855516    -0.13400
Br4185     Br  0.70244251  0.85475011  0.40244987    -0.05500
Br4186     Br  0.67790725  0.84950242  0.49324755     0.00100
Br4187     Br  0.62721994  0.85964953  0.38009315     0.00600
Br4188     Br  0.68878681  0.90539393  0.43436532    -0.03800
Br4189     Br  0.72751810  0.82841580  0.43222720     0.00700
Br4190     Br  0.65155164  0.87441854  0.46300180    -0.03100
Br4191     Br  0.64845033  0.83767223  0.41529920    -0.04000
Br4192     Br  0.66557082  0.92910123  0.40158829     0.00000
C4193       C  0.73028246  0.97491176  0.28126224     0.01400
C4194       C  0.71404794  0.96892336  0.27101229     0.04200
C4195       C  0.69827017  0.96124268  0.28054101    -0.11900
C4196       C  0.69791773  0.96022444  0.30034211     0.23500
C4197       C  0.71344855  0.96682881  0.31067616    -0.12400
C4198       C  0.72968927  0.97369410  0.30135902     0.04900
C4199       C  0.68209205  0.95050948  0.31038945     0.27300
C4200       C  0.66542374  0.96007322  0.31512699    -0.13100
C4201       C  0.65089443  0.95078831  0.32525061     0.05400
C4202       C  0.65379296  0.93236589  0.33284109    -0.09100
C4203       C  0.66982976  0.92226997  0.32584269     0.06200
C4204       C  0.68377031  0.93137077  0.31489871    -0.13400
Br4205     Br  0.71241844  0.96587885  0.33791411    -0.05500
Br4206     Br  0.71237920  0.97141816  0.24389826     0.00100
Br4207     Br  0.62626825  0.96214806  0.32410562     0.00600
Br4208     Br  0.70552831  0.91765552  0.30578490    -0.03800
Br4209     Br  0.75117832  0.98002932  0.31692430     0.00700
Br4210     Br  0.67710619  0.95144097  0.26650549    -0.03100
Br4211     Br  0.66248785  0.98594561  0.30726082    -0.04000
Br4212     Br  0.67318952  0.89559852  0.32976142     0.00000
C4213       C  0.73234493  0.04065623  0.21513650     0.01400
C4214       C  0.73570891  0.05295621  0.19987717     0.04200
C4215       C  0.72052693  0.06159880  0.19061904    -0.11900
C4216       C  0.70192630  0.05820234  0.19679068     0.23500
C4217       C  0.69857776  0.04658887  0.21255348    -0.12400
C4218       C  0.71381147  0.03791842  0.22181807     0.04900
C4219       C  0.68598925  0.06613858  0.18592094     0.27300
C4220       C  0.68067592  0.08492206  0.18847146    -0.13100
C4221       C  0.66760138  0.09341459  0.17616230     0.05400
C4222       C  0.65857328  0.08266148  0.16158368    -0.09100
C4223       C  0.66571939  0.06413161  0.15834411     0.06200
C4224       C  0.67839497  0.05571558  0.17105269    -0.13400
Br4225     Br  0.67309397  0.04242253  0.22113131    -0.05500
Br4226     Br  0.76107737  0.05777623  0.19136620     0.00100
Br4227     Br  0.66547231  0.12051346  0.17829375     0.00600
Br4228     Br  0.68680944  0.03003105  0.16738450    -0.03800
Br4229     Br  0.70945370  0.02319161  0.24425438     0.00700
Br4230     Br  0.72512745  0.07770734  0.16909223    -0.03100
Br4231     Br  0.69250579  0.09923421  0.20843186    -0.04000
Br4232     Br  0.66291398  0.05114989  0.13478366     0.00000
C4233       C  0.84064754  0.11580801  0.37050105     0.01400
C4234       C  0.82693415  0.12215045  0.35729492     0.04200
C4235       C  0.81987029  0.10996657  0.34334938    -0.11900
C4236       C  0.82690182  0.09160049  0.34170184     0.23500
C4237       C  0.84100985  0.08532613  0.35408647    -0.12400
C4238       C  0.84744430  0.09706276  0.36876607     0.04900
C4239       C  0.81912280  0.07884106  0.32703997     0.27300
C4240       C  0.80432484  0.06638679  0.33158906    -0.13100
C4241       C  0.79623764  0.05495331  0.31755192     0.05400
C4242       C  0.80312772  0.05568207  0.29882121    -0.09100
C4243       C  0.81804538  0.06826107  0.29434255     0.06200
C4244       C  0.82591238  0.07980797  0.30841037    -0.13400
Br4245     Br  0.85154493  0.06050258  0.35065378    -0.05500
Br4246     Br  0.81817983  0.14774653  0.35678463     0.00100
Br4247     Br  0.77500407  0.03911989  0.32402130     0.00600
Br4248     Br  0.84617831  0.09699489  0.30232621    -0.03800
Br4249     Br  0.86436823  0.08623908  0.38700510     0.00700
Br4250     Br  0.80050988  0.11838668  0.32609224    -0.03100
Br4251     Br  0.79505477  0.06521048  0.35717068    -0.04000
Br4252     Br  0.82865657  0.06929789  0.26925031     0.00000
C4253       C  0.80168757  0.95901523  0.19265183     0.01400
C4254       C  0.81765809  0.96393784  0.18151613     0.04200
C4255       C  0.82462320  0.95147756  0.16778730    -0.11900
C4256       C  0.81560359  0.93414831  0.16467992     0.23500
C4257       C  0.79926855  0.92947389  0.17504166    -0.12400
C4258       C  0.79224171  0.94186713  0.18893743     0.04900
C4259       C  0.82346813  0.92085250  0.15051805     0.27300
C4260       C  0.81805033  0.92222862  0.13150939    -0.13100
C4261       C  0.82605307  0.91018767  0.11793877     0.05400
C4262       C  0.83939053  0.89633825  0.12331600    -0.09100
C4263       C  0.84483106  0.89511879  0.14248203     0.06200
C4264       C  0.83698424  0.90741451  0.15594684    -0.13400
Br4265     Br  0.78697881  0.90569089  0.17044851    -0.05500
Br4266     Br  0.82998716  0.98808484  0.18431616     0.00100
Br4267     Br  0.81975192  0.91411179  0.09179360     0.00600
Br4268     Br  0.84485654  0.90613505  0.18197177    -0.03800
Br4269     Br  0.77029088  0.93468334  0.20334455     0.00700
Br4270     Br  0.84689289  0.95789132  0.15334771    -0.03100
Br4271     Br  0.79992849  0.94109100  0.12409108    -0.04000
Br4272     Br  0.86251587  0.87640924  0.15089652     0.00000
C4273       C  0.83261432  0.96596771  0.28819904     0.01400
C4274       C  0.83490953  0.94702630  0.28295172     0.04200
C4275       C  0.84470149  0.93464640  0.29487227    -0.11900
C4276       C  0.85224559  0.94122986  0.31200374     0.23500
C4277       C  0.85059534  0.96035948  0.31689112    -0.12400
C4278       C  0.84072726  0.97274069  0.30497571     0.04900
C4279       C  0.86203636  0.92784903  0.32462394     0.27300
C4280       C  0.85171006  0.91752271  0.33810229    -0.13100
C4281       C  0.86036475  0.90271069  0.34806061     0.05400
C4282       C  0.87946883  0.89824805  0.34456634    -0.09100
C4283       C  0.89010423  0.90964696  0.33193739     0.06200
C4284       C  0.88131446  0.92426291  0.32192563    -0.13400
Br4285     Br  0.86190815  0.96948215  0.33981620    -0.05500
Br4286     Br  0.82417417  0.93797016  0.25968155     0.00100
Br4287     Br  0.84547008  0.88805438  0.36546683     0.00600
Br4288     Br  0.89543797  0.93908479  0.30390207    -0.03800
Br4289     Br  0.83859936  0.99905980  0.31130577     0.00700
Br4290     Br  0.84775111  0.90858837  0.28786074    -0.03100
Br4291     Br  0.82541126  0.92326330  0.34217536    -0.04000
Br4292     Br  0.91701160  0.90612373  0.32880240     0.00000
C4293       C  0.83327926  0.04495377  0.20504220     0.01400
C4294       C  0.85052490  0.05341205  0.21004673     0.04200
C4295       C  0.85906543  0.06642852  0.19770427    -0.11900
C4296       C  0.85034665  0.07091641  0.18042040     0.23500
C4297       C  0.83369412  0.06167256  0.17499237    -0.12400
C4298       C  0.82539777  0.04841833  0.18712908     0.04900
C4299       C  0.85851207  0.08560226  0.16807715     0.27300
C4300       C  0.85313199  0.10447504  0.17045609    -0.13100
C4301       C  0.86203610  0.11864965  0.15987459     0.05400
C4302       C  0.87612381  0.11391231  0.14647497    -0.09100
C4303       C  0.87984613  0.09477344  0.14270464     0.06200
C4304       C  0.87155644  0.08069590  0.15397909    -0.13400
Br4305     Br  0.82193103  0.06775817  0.15122994    -0.05500
Br4306     Br  0.86207156  0.04771809  0.23396425     0.00100
Br4307     Br  0.85472439  0.14460192  0.16386063     0.00600
Br4308     Br  0.87874271  0.05468346  0.15093351    -0.03800
Br4309     Br  0.80363753  0.03437680  0.17890968     0.00700
Br4310     Br  0.88233169  0.07867745  0.20463786    -0.03100
Br4311     Br  0.83400035  0.11087414  0.18875681    -0.04000
Br4312     Br  0.89625244  0.08744560  0.12243824     0.00000
C4313       C  0.07163349  0.33887959  0.15723198     0.01400
C4314       C  0.05775707  0.32625233  0.14989646     0.04200
C4315       C  0.04747012  0.31430276  0.16208218    -0.11900
C4316       C  0.05070768  0.31482577  0.18159285     0.23500
C4317       C  0.06493686  0.32647346  0.18882717    -0.12400
C4318       C  0.07653937  0.33683488  0.17658426     0.04900
C4319       C  0.04069310  0.30187106  0.19463628     0.27300
C4320       C  0.02259859  0.30645854  0.20131348    -0.13100
C4321       C  0.01476302  0.29631541  0.21645585     0.05400
C4322       C  0.02540281  0.28211555  0.22556910    -0.09100
C4323       C  0.04299952  0.27668673  0.21799577     0.06200
C4324       C  0.05036640  0.28626730  0.20223031    -0.13400
Br4325     Br  0.06900728  0.32774056  0.21578122    -0.05500
Br4326     Br  0.05374217  0.32335974  0.12306163     0.00100
Br4327     Br  0.98935299  0.30199440  0.22459797     0.00600
Br4328     Br  0.07434141  0.27887215  0.19163183    -0.03800
Br4329     Br  0.10153131  0.34201340  0.18592992     0.00700
Br4330     Br  0.02904602  0.29689882  0.15218082    -0.03100
Br4331     Br  0.00905755  0.32737554  0.19043606    -0.04000
Br4332     Br  0.05808127  0.25761445  0.23018223     0.00000
C4333       C  0.92064540  0.16706324  0.15908775     0.01400
C4334       C  0.92786272  0.15759938  0.17539956     0.04200
C4335       C  0.93358434  0.16781021  0.19137477    -0.11900
C4336       C  0.93412699  0.18750842  0.19083963     0.23500
C4337       C  0.92932820  0.19700881  0.17413077    -0.12400
C4338       C  0.92347294  0.18686792  0.15809483     0.04900
C4339       C  0.94300238  0.19798385  0.20660377     0.27300
C4340       C  0.93237783  0.20356406  0.22241805    -0.13100
C4341       C  0.94110322  0.21356087  0.23719340     0.05400
C4342       C  0.96035641  0.21873607  0.23576771    -0.09100
C4343       C  0.97088665  0.21310016  0.21977287     0.06200
C4344       C  0.96236020  0.20226820  0.20561232    -0.13400
Br4345     Br  0.93153305  0.22411193  0.17319341    -0.05500
Br4346     Br  0.93264568  0.13083615  0.17589995     0.00100
Br4347     Br  0.92682591  0.21906281  0.25973029     0.00600
Br4348     Br  0.97726302  0.19303639  0.18475421    -0.03800
Br4349     Br  0.92435938  0.19995340  0.13432910     0.00700
Br4350     Br  0.94120895  0.15484747  0.21414320    -0.03100
Br4351     Br  0.90592657  0.19729462  0.22376428    -0.04000
Br4352     Br  0.99673784  0.22113384  0.21625087     0.00000
C4353       C  0.10822941  0.13421466  0.33711419     0.01400
C4354       C  0.09077996  0.12898087  0.32904624     0.04200
C4355       C  0.07794428  0.14290174  0.32306196    -0.11900
C4356       C  0.08263767  0.16212727  0.32464178     0.23500
C4357       C  0.10061007  0.16727150  0.33142081    -0.12400
C4358       C  0.11368441  0.15329713  0.33667901     0.04900
C4359       C  0.06906428  0.17684901  0.31822581     0.27300
C4360       C  0.07118605  0.18537251  0.30038911    -0.13100
C4361       C  0.05858846  0.19955384  0.29440825     0.05400
C4362       C  0.04318830  0.20493381  0.30601230    -0.09100
C4363       C  0.04082873  0.19576241  0.32374968     0.06200
C4364       C  0.05389632  0.18209952  0.32986593    -0.13400
Br4365     Br  0.10738685  0.19348878  0.33332959    -0.05500
Br4366     Br  0.08517655  0.10276139  0.32443694     0.00100
Br4367     Br  0.06346058  0.21203143  0.27064880     0.00600
Br4368     Br  0.05112574  0.17036819  0.35434695    -0.03800
Br4369     Br  0.13986456  0.15998855  0.33993328     0.00700
Br4370     Br  0.05405988  0.13569836  0.31223491    -0.03100
Br4371     Br  0.09144690  0.17735394  0.28405631    -0.04000
Br4372     Br  0.01929824  0.20074813  0.33975129     0.00000
C4373       C  0.95140376  0.31566115  0.29388584     0.01400
C4374       C  0.95521694  0.32418511  0.31139132     0.04200
C4375       C  0.94492180  0.33997080  0.31717593    -0.11900
C4376       C  0.92913982  0.34586716  0.30673466     0.23500
C4377       C  0.92469379  0.33688361  0.28957751    -0.12400
C4378       C  0.93619996  0.32214552  0.28285969     0.04900
C4379       C  0.91630783  0.36001097  0.31520088     0.27300
C4380       C  0.90448603  0.35454438  0.33021359    -0.13100
C4381       C  0.89432462  0.36811899  0.34042661     0.05400
C4382       C  0.89470411  0.38719736  0.33475689    -0.09100
C4383       C  0.90652534  0.39260522  0.31944597     0.06200
C4384       C  0.91746757  0.37906155  0.30994255    -0.13400
Br4385     Br  0.90251155  0.34429005  0.27577231    -0.05500
Br4386     Br  0.97242507  0.31249248  0.32887852     0.00100
Br4387     Br  0.88026309  0.36005501  0.36220447     0.00600
Br4388     Br  0.93439149  0.38652117  0.28991214    -0.03800
Br4389     Br  0.93109365  0.31074030  0.25876822     0.00700
Br4390     Br  0.95205751  0.35325611  0.33980635    -0.03100
Br4391     Br  0.90220794  0.32816958  0.33663693    -0.04000
Br4392     Br  0.90887300  0.41872577  0.31196892     0.00000
C4393       C  0.88826505  0.16197967  0.37746312     0.01400
C4394       C  0.88727356  0.16343779  0.35767811     0.04200
C4395       C  0.89961413  0.17559616  0.34800549    -0.11900
C4396       C  0.91348469  0.18559886  0.35804301     0.23500
C4397       C  0.91524421  0.18329929  0.37763885    -0.12400
C4398       C  0.90238142  0.17190980  0.38743171     0.04900
C4399       C  0.92623641  0.19872846  0.34815657     0.27300
C4400       C  0.94210948  0.19170861  0.33856668    -0.13100
C4401       C  0.95461257  0.20423596  0.32974121     0.05400
C4402       C  0.95168192  0.22377198  0.33121327    -0.09100
C4403       C  0.93572904  0.23082507  0.34060239     0.06200
C4404       C  0.92286969  0.21827277  0.34895666    -0.13400
Br4405     Br  0.93513437  0.19615080  0.39104922    -0.05500
Br4406     Br  0.86841398  0.14973283  0.34386580     0.00100
Br4407     Br  0.97495018  0.19463514  0.31441581     0.00600
Br4408     Br  0.90045214  0.22772580  0.36112457    -0.03800
Br4409     Br  0.90405350  0.17029100  0.41461980     0.00700
Br4410     Br  0.89703113  0.17930722  0.32116006    -0.03100
Br4411     Br  0.94656757  0.16493925  0.33740747    -0.04000
Br4412     Br  0.93136805  0.25761119  0.34148793     0.00000
C4413       C  0.04088490  0.29889661  0.32735358     0.01400
C4414       C  0.03903083  0.31846769  0.33019458     0.04200
C4415       C  0.05334798  0.32855054  0.33944815    -0.11900
C4416       C  0.07010385  0.31937110  0.34478160     0.23500
C4417       C  0.07241015  0.30003951  0.34104833    -0.12400
C4418       C  0.05767928  0.28972958  0.33271723     0.04900
C4419       C  0.08490290  0.32980762  0.35518923     0.27300
C4420       C  0.09743648  0.34188568  0.34563190    -0.13100
C4421       C  0.11122839  0.35199231  0.35573893     0.05400
C4422       C  0.11310998  0.34943423  0.37548223    -0.09100
C4423       C  0.10017243  0.33738882  0.38491713     0.06200
C4424       C  0.08609360  0.32782758  0.37483585    -0.13400
Br4425     Br  0.09594513  0.28784412  0.34709318    -0.05500
Br4426     Br  0.01709001  0.33167425  0.32127775     0.00100
Br4427     Br  0.12726809  0.36903858  0.34199278     0.00600
Br4428     Br  0.06790725  0.31223805  0.38796809    -0.03800
Br4429     Br  0.06096899  0.26324137  0.32764283     0.00700
Br4430     Br  0.04995663  0.35490355  0.34513621    -0.03100
Br4431     Br  0.09571389  0.34428897  0.31855163    -0.04000
Br4432     Br  0.10013857  0.33492611  0.41191273     0.00000
C4433       C  0.76191015  0.53684038  0.21738956     0.01400
C4434       C  0.76243297  0.54256578  0.19826389     0.04200
C4435       C  0.77905837  0.55028267  0.19058679    -0.11900
C4436       C  0.79511636  0.55266256  0.20196485     0.23500
C4437       C  0.79456055  0.54752684  0.22110067    -0.12400
C4438       C  0.77803018  0.53976021  0.22889441     0.04900
C4439       C  0.81226690  0.56158410  0.19396874     0.27300
C4440       C  0.82640640  0.55057470  0.18559571    -0.13100
C4441       C  0.84210840  0.55926097  0.17698350     0.05400
C4442       C  0.84243355  0.57913518  0.17452174    -0.09100
C4443       C  0.82962847  0.58995902  0.18568941     0.06200
C4444       C  0.81457076  0.58114551  0.19514817    -0.13400
Br4445     Br  0.81662045  0.55131093  0.23659718    -0.05500
Br4446     Br  0.74005495  0.54145841  0.18278497     0.00100
Br4447     Br  0.86428391  0.54398501  0.17356716     0.00600
Br4448     Br  0.79645075  0.59587188  0.20917702    -0.03800
Br4449     Br  0.77810916  0.53317651  0.25538593     0.00700
Br4450     Br  0.77992347  0.55792638  0.16445026    -0.03100
Br4451     Br  0.82407291  0.52349840  0.18596943    -0.04000
Br4452     Br  0.83181549  0.61705541  0.18797138     0.00000
C4453       C  0.76383988  0.47008244  0.27716681     0.01400
C4454       C  0.78145872  0.47311362  0.26837807     0.04200
C4455       C  0.79816438  0.46705623  0.27723445    -0.11900
C4456       C  0.79717722  0.45744853  0.29458364     0.23500
C4457       C  0.77950608  0.45373731  0.30296496    -0.12400
C4458       C  0.76290011  0.46006401  0.29427985     0.04900
C4459       C  0.81445142  0.45068069  0.30417162     0.27300
C4460       C  0.81994843  0.43194772  0.30180375    -0.13100
C4461       C  0.83252075  0.42351229  0.31458528     0.05400
C4462       C  0.84175089  0.43445171  0.32883130    -0.09100
C4463       C  0.83532390  0.45337402  0.33133008     0.06200
C4464       C  0.82246926  0.46151372  0.31854454    -0.13400
Br4465     Br  0.77812337  0.44017026  0.32659023    -0.05500
Br4466     Br  0.78255609  0.48455833  0.24374550     0.00100
Br4467     Br  0.83353808  0.39629789  0.31376107     0.00600
Br4468     Br  0.81457727  0.48744944  0.32122104    -0.03800
Br4469     Br  0.73888032  0.45521581  0.30601578     0.00700
Br4470     Br  0.82238791  0.47200971  0.26586987    -0.03100
Br4471     Br  0.80914655  0.41761008  0.28131231    -0.04000
Br4472     Br  0.83936839  0.46744545  0.35411666     0.00000
C4473       C  0.69228427  0.45201976  0.19479550     0.01400
C4474       C  0.67435998  0.44354253  0.19707404     0.04200
C4475       C  0.66625749  0.43317550  0.18224059    -0.11900
C4476       C  0.67576877  0.43153470  0.16486738     0.23500
C4477       C  0.69354104  0.44014138  0.16246874    -0.12400
C4478       C  0.70196009  0.44998561  0.17750794     0.04900
C4479       C  0.66748084  0.41988977  0.14951389     0.27300
C4480       C  0.67299344  0.40105526  0.14758550    -0.13100
C4481       C  0.66493280  0.38963426  0.13352507     0.05400
C4482       C  0.65137974  0.39709105  0.12061281    -0.09100
C4483       C  0.64502503  0.41590399  0.12363108     0.06200
C4484       C  0.65345788  0.42725803  0.13764296    -0.13400
Br4485     Br  0.70606005  0.43879380  0.13834961    -0.05500
Br4486     Br  0.66020622  0.44699860  0.22006124     0.00100
Br4487     Br  0.67182413  0.36332392  0.13387908     0.00600
Br4488     Br  0.64617729  0.45330944  0.14058141    -0.03800
Br4489     Br  0.72714651  0.45991727  0.17471458     0.00700
Br4490     Br  0.64187854  0.42144226  0.18550901    -0.03100
Br4491     Br  0.69178616  0.39094818  0.16458003    -0.04000
Br4492     Br  0.62450301  0.42695309  0.10972033     0.00000
C4493       C  0.65737922  0.61076142  0.37295950     0.01400
C4494       C  0.67335162  0.59918857  0.37638890     0.04200
C4495       C  0.68110553  0.58810269  0.36183651    -0.11900
C4496       C  0.67271185  0.58784337  0.34389130     0.23500
C4497       C  0.65663425  0.59892222  0.34044943    -0.12400
C4498       C  0.64892644  0.61025661  0.35485290     0.04900
C4499       C  0.67963408  0.57456665  0.32915856     0.27300
C4500       C  0.69419354  0.57977265  0.31658554    -0.13100
C4501       C  0.69998979  0.56728529  0.30221617     0.05400
C4502       C  0.69110349  0.54956472  0.30028987    -0.09100
C4503       C  0.67691640  0.54423062  0.31328713     0.06200
C4504       C  0.67125097  0.55666353  0.32762019    -0.13400
Br4505     Br  0.64529002  0.59851585  0.31570218    -0.05500
Br4506     Br  0.68396345  0.59705680  0.40139931     0.00100
Br4507     Br  0.71943746  0.57490246  0.28470675     0.00600
Br4508     Br  0.65186248  0.54921729  0.34528916    -0.03800
Br4509     Br  0.62697734  0.62507042  0.34905867     0.00700
Br4510     Br  0.70326685  0.57301619  0.36638995    -0.03100
Br4511     Br  0.70589372  0.60416318  0.31896005    -0.04000
Br4512     Br  0.66560527  0.51949512  0.31205746     0.00000
C4513       C  0.66435543  0.54366196  0.20457218     0.01400
C4514       C  0.66818933  0.56276551  0.20819351     0.04200
C4515       C  0.65944166  0.57690459  0.19742088    -0.11900
C4516       C  0.64737945  0.57200570  0.18243309     0.23500
C4517       C  0.64404023  0.55283356  0.17837450    -0.12400
C4518       C  0.65239358  0.53867035  0.18955404     0.04900
C4519       C  0.63714873  0.58702689  0.17195478     0.27300
C4520       C  0.61832116  0.59095152  0.17665316    -0.13100
C4521       C  0.60853237  0.60534313  0.16723637     0.05400
C4522       C  0.61782526  0.61702197  0.15385114    -0.09100
C4523       C  0.63670707  0.61274624  0.14889484     0.06200
C4524       C  0.64620333  0.59764930  0.15776603    -0.13400
Br4525     Br  0.62788374  0.54610180  0.15759007    -0.05500
Br4526     Br  0.68570378  0.56949404  0.22789509     0.00100
Br4527     Br  0.58182769  0.60738682  0.17167120     0.00600
Br4528     Br  0.67178500  0.59152834  0.15077044    -0.03800
Br4529     Br  0.64762677  0.51248625  0.18430441     0.00700
Br4530     Br  0.66351216  0.60302474  0.20358487    -0.03100
Br4531     Br  0.60602521  0.57674013  0.19647481    -0.04000
Br4532     Br  0.65010148  0.62757355  0.13047982     0.00000
C4533       C  0.61518759  0.39316729  0.34824498     0.01400
C4534       C  0.62650264  0.38883564  0.33212306     0.04200
C4535       C  0.63557981  0.40318226  0.32175471    -0.11900
C4536       C  0.63322606  0.42211745  0.32674802     0.23500
C4537       C  0.62319144  0.42662174  0.34323071    -0.12400
C4538       C  0.61502220  0.41226549  0.35447409     0.04900
C4539       C  0.64183284  0.43713863  0.31474120     0.27300
C4540       C  0.65937302  0.44504363  0.31964845    -0.13100
C4541       C  0.66831548  0.45788326  0.30738118     0.05400
C4542       C  0.66025601  0.46227353  0.28969501    -0.09100
C4543       C  0.64230242  0.45501949  0.28517352     0.06200
C4544       C  0.63308010  0.44258569  0.29772368    -0.13400
Br4545     Br  0.62042096  0.45279434  0.35006410    -0.05500
Br4546     Br  0.63117749  0.36328348  0.32416699     0.00100
Br4547     Br  0.69130757  0.47006536  0.31520032     0.00600
Br4548     Br  0.60873334  0.43230978  0.29133019    -0.03800
Br4549     Br  0.60498405  0.41982910  0.37854445     0.00700
Br4550     Br  0.65157189  0.39704647  0.30048559    -0.03100
Br4551     Br  0.67158897  0.43751384  0.34276721    -0.04000
Br4552     Br  0.63074090  0.46120332  0.26139175     0.00000
C4553       C  0.27712455  0.27165111  0.53710071     0.01400
C4554       C  0.28117112  0.27173064  0.55656377     0.04200
C4555       C  0.29128290  0.28685551  0.56450730    -0.11900
C4556       C  0.29716581  0.30201931  0.55305665     0.23500
C4557       C  0.29258338  0.30221203  0.53373436    -0.12400
C4558       C  0.28284079  0.28695306  0.52572870     0.04900
C4559       C  0.30947135  0.31703368  0.56086802     0.27300
C4560       C  0.30187756  0.33457718  0.56591943    -0.13100
C4561       C  0.31384501  0.34920913  0.57190281     0.05400
C4562       C  0.33319788  0.34553302  0.57563065    -0.09100
C4563       C  0.34103630  0.32883832  0.56779278     0.06200
C4564       C  0.32913829  0.31449979  0.56101205    -0.13400
Br4565     Br  0.30017253  0.32321990  0.51813743    -0.05500
Br4566     Br  0.27400674  0.25053418  0.57204289     0.00100
Br4567     Br  0.30447425  0.37467273  0.56956718     0.00600
Br4568     Br  0.33973949  0.29137429  0.55141624    -0.03800
Br4569     Br  0.27768770  0.28686266  0.49901913     0.00700
Br4570     Br  0.29765537  0.28665722  0.59093195    -0.03100
Br4571     Br  0.27504411  0.33869382  0.56410825    -0.04000
Br4572     Br  0.36788521  0.32625466  0.56347262     0.00000
C4573       C  0.20958815  0.27380524  0.47355255     0.01400
C4574       C  0.21214118  0.29201323  0.48118538     0.04200
C4575       C  0.20379057  0.30773389  0.47236910    -0.11900
C4576       C  0.19255254  0.30526873  0.45622053     0.23500
C4577       C  0.18901268  0.28700982  0.44936167    -0.12400
C4578       C  0.19752669  0.27134174  0.45795260     0.04900
C4579       C  0.18423530  0.32172136  0.44627939     0.27300
C4580       C  0.16593123  0.32748371  0.45064219    -0.13100
C4581       C  0.15667954  0.34100819  0.43939868     0.05400
C4582       C  0.16574404  0.34923840  0.42310488    -0.09100
C4583       C  0.18440881  0.34254219  0.41879234     0.06200
C4584       C  0.19369490  0.32971814  0.43089439    -0.13400
Br4585     Br  0.17227563  0.28350917  0.42820957    -0.05500
Br4586     Br  0.22727963  0.29567668  0.50343685     0.00100
Br4587     Br  0.13082070  0.34591328  0.44668713     0.00600
Br4588     Br  0.21936572  0.32170313  0.42593932    -0.03800
Br4589     Br  0.19174519  0.24635182  0.44894368     0.00700
Br4590     Br  0.20773691  0.33272183  0.48219098    -0.03100
Br4591     Br  0.15324624  0.31560158  0.47181047    -0.04000
Br4592     Br  0.19725907  0.34684924  0.39521604     0.00000
C4593       C  0.37147941  0.16923862  0.39233696     0.01400
C4594       C  0.35547507  0.17849160  0.38470963     0.04200
C4595       C  0.34197683  0.18704220  0.39654169    -0.11900
C4596       C  0.34371032  0.18588746  0.41623438     0.23500
C4597       C  0.35927418  0.17639359  0.42406363    -0.12400
C4598       C  0.37310470  0.16818795  0.41225936     0.04900
C4599       C  0.32839281  0.19347810  0.42858237     0.27300
C4600       C  0.32781436  0.21275863  0.43337410    -0.13100
C4601       C  0.31292801  0.21984273  0.44457858     0.05400
C4602       C  0.29866060  0.20766674  0.45118800    -0.09100
C4603       C  0.29926416  0.18841352  0.44640608     0.06200
C4604       C  0.31394967  0.18138846  0.43501979    -0.13400
Br4605     Br  0.36148263  0.17470446  0.45114985    -0.05500
Br4606     Br  0.35040886  0.17800497  0.35817973     0.00100
Br4607     Br  0.31185726  0.24620902  0.45076304     0.00600
Br4608     Br  0.31432844  0.15512096  0.42816757    -0.03800
Br4609     Br  0.39420394  0.15589549  0.42393985     0.00700
Br4610     Br  0.32063113  0.20012483  0.38582511    -0.03100
Br4611     Br  0.34751143  0.22936142  0.42463924    -0.04000
Br4612     Br  0.28023566  0.17147096  0.45608424     0.00000
C4613       C  0.19085167  0.19714923  0.54709332     0.01400
C4614       C  0.17391214  0.20764721  0.54847112     0.04200
C4615       C  0.15884968  0.20111221  0.55987644    -0.11900
C4616       C  0.16034048  0.18387614  0.56966275     0.23500
C4617       C  0.17703229  0.17328890  0.56814601    -0.12400
C4618       C  0.19228364  0.17994859  0.55721502     0.04900
C4619       C  0.14476771  0.17698894  0.58217751     0.27300
C4620       C  0.14549732  0.18046944  0.60169376    -0.13100
C4621       C  0.13189861  0.17255953  0.61393575     0.05400
C4622       C  0.11721412  0.16102539  0.60673115    -0.09100
C4623       C  0.11640793  0.15783690  0.58703814     0.06200
C4624       C  0.13009595  0.16579535  0.57487650    -0.13400
Br4625     Br  0.17889474  0.14947943  0.58124245    -0.05500
Br4626     Br  0.17065951  0.23044703  0.53398327     0.00100
Br4627     Br  0.13448548  0.17681038  0.64073667     0.00600
Br4628     Br  0.12893124  0.16133709  0.54807297    -0.03800
Br4629     Br  0.21542446  0.16560678  0.55715355     0.00700
Br4630     Br  0.13602326  0.21567573  0.56214762    -0.03100
Br4631     Br  0.16557065  0.19591665  0.61161839    -0.04000
Br4632     Br  0.09627620  0.14319435  0.57626018     0.00000
C4633       C  0.28607568  0.17379593  0.54225419     0.01400
C4634       C  0.28184646  0.17572341  0.56154771     0.04200
C4635       C  0.29348098  0.16725164  0.57511629    -0.11900
C4636       C  0.30951814  0.15704878  0.56941684     0.23500
C4637       C  0.31394948  0.15538095  0.55011021    -0.12400
C4638       C  0.30223424  0.16382154  0.53651609     0.04900
C4639       C  0.32100839  0.14727079  0.58381641     0.27300
C4640       C  0.33536868  0.15691808  0.59349433    -0.13100
C4641       C  0.34483213  0.14815302  0.60858464     0.05400
C4642       C  0.34049769  0.12936160  0.61352738    -0.09100
C4643       C  0.32643758  0.11950492  0.60319337     0.06200
C4644       C  0.31659058  0.12860365  0.58863983    -0.13400
Br4645     Br  0.33609339  0.14163985  0.54243200    -0.05500
Br4646     Br  0.26055304  0.19070355  0.56937615     0.00100
Br4647     Br  0.36263385  0.16254373  0.62318965     0.00600
Br4648     Br  0.29678243  0.11559553  0.57521514    -0.03800
Br4649     Br  0.30838304  0.16208926  0.51006761     0.00700
Br4650     Br  0.28754608  0.16962420  0.60157376    -0.03100
Br4651     Br  0.34178654  0.18227917  0.58610095    -0.04000
Br4652     Br  0.32124289  0.09306367  0.60757234     0.00000
C4653       C  0.15629142  0.12251246  0.38467516     0.01400
C4654       C  0.17208090  0.11311733  0.39294787     0.04200
C4655       C  0.18322657  0.12206535  0.40673495    -0.11900
C4656       C  0.17854557  0.14011916  0.41313756     0.23500
C4657       C  0.16220645  0.14896859  0.40631876    -0.12400
C4658       C  0.15087345  0.14018802  0.39250589     0.04900
C4659       C  0.19074294  0.14985951  0.42718912     0.27300
C4660       C  0.18688463  0.14828504  0.44663164    -0.13100
C4661       C  0.19762691  0.15856355  0.45981885     0.05400
C4662       C  0.21241704  0.17046068  0.45360268    -0.09100
C4663       C  0.21669186  0.17139406  0.43411365     0.06200
C4664       C  0.20585397  0.16118663  0.42100496    -0.13400
Br4665     Br  0.15574120  0.17360958  0.41588281    -0.05500
Br4666     Br  0.17810880  0.08720814  0.38721402     0.00100
Br4667     Br  0.19106674  0.15720802  0.48621986     0.00600
Br4668     Br  0.21142711  0.16290344  0.39440388    -0.03800
Br4669     Br  0.12801852  0.15307645  0.38555371     0.00700
Br4670     Br  0.20524527  0.10972022  0.41697158    -0.03100
Br4671     Br  0.16645661  0.13235174  0.45502878    -0.04000
Br4672     Br  0.23774478  0.18625892  0.42518900     0.00000
C4673       C  0.46355818  0.22244195  0.26180317     0.01400
C4674       C  0.46100953  0.23194251  0.27920806     0.04200
C4675       C  0.45257641  0.22260278  0.29464287    -0.11900
C4676       C  0.44649429  0.20385408  0.29287994     0.23500
C4677       C  0.44830370  0.19456339  0.27546136    -0.12400
C4678       C  0.45684385  0.20371476  0.26001271     0.04900
C4679       C  0.43790632  0.19380008  0.30921788     0.27300
C4680       C  0.44877498  0.18123791  0.31994694    -0.13100
C4681       C  0.44014072  0.16939778  0.33347852     0.05400
C4682       C  0.42074479  0.17199288  0.33853890    -0.09100
C4683       C  0.40979334  0.18343099  0.32610024     0.06200
C4684       C  0.41838976  0.19464656  0.31210517    -0.13400
Br4685     Br  0.43881355  0.16918350  0.27283615    -0.05500
Br4686     Br  0.46969153  0.25748745  0.28265681     0.00100
Br4687     Br  0.45388752  0.14659198  0.33928023     0.00600
Br4688     Br  0.40331743  0.21054962  0.29585440    -0.03800
Br4689     Br  0.45845336  0.19043017  0.23633460     0.00700
Br4690     Br  0.44939814  0.23533420  0.31843725    -0.03100
Br4691     Br  0.47553738  0.17945284  0.31494236    -0.04000
Br4692     Br  0.38283678  0.18114287  0.32465941     0.00000
C4693       C  0.57456483  0.33486597  0.34280142     0.01400
C4694       C  0.55612330  0.33899961  0.33557569     0.04200
C4695       C  0.54707237  0.32671204  0.32285199    -0.11900
C4696       C  0.55708293  0.31207720  0.31422828     0.23500
C4697       C  0.57576816  0.30865583  0.31966842    -0.12400
C4698       C  0.58454830  0.31986528  0.33364029     0.04900
C4699       C  0.54913741  0.30279720  0.29705673     0.27300
C4700       C  0.54011000  0.28512344  0.29813535    -0.13100
C4701       C  0.53240613  0.27685764  0.28174786     0.05400
C4702       C  0.53303716  0.28653183  0.26434234    -0.09100
C4703       C  0.54231387  0.30404401  0.26325184     0.06200
C4704       C  0.55059073  0.31199196  0.27943935    -0.13400
Br4705     Br  0.58962436  0.28905103  0.30674306    -0.05500
Br4706     Br  0.54420376  0.36333599  0.33856315     0.00100
Br4707     Br  0.52172256  0.25192612  0.28289369     0.00600
Br4708     Br  0.56413432  0.33551501  0.27750021    -0.03800
Br4709     Br  0.61116822  0.31578574  0.33666060     0.00700
Br4710     Br  0.52092646  0.33046598  0.31613536    -0.03100
Br4711     Br  0.53825829  0.27239159  0.32208695    -0.04000
Br4712     Br  0.54337314  0.31735242  0.23959394     0.00000
C4713       C  0.54985230  0.20310044  0.19362610     0.01400
C4714       C  0.54280430  0.19067262  0.17969792     0.04200
C4715       C  0.55440303  0.17654981  0.17215665    -0.11900
C4716       C  0.57322143  0.17484899  0.17810727     0.23500
C4717       C  0.58048669  0.18736813  0.19167896    -0.12400
C4718       C  0.56885897  0.20150421  0.19942688     0.04900
C4719       C  0.58531123  0.16003829  0.16961754     0.27300
C4720       C  0.58425280  0.14143114  0.17632844    -0.13100
C4721       C  0.59453888  0.12706110  0.16737558     0.05400
C4722       C  0.60680604  0.13135012  0.15210795    -0.09100
C4723       C  0.60737215  0.15005363  0.14512002     0.06200
C4724       C  0.59658732  0.16425902  0.15382223    -0.13400
Br4725     Br  0.60640892  0.18503319  0.19954809    -0.05500
Br4726     Br  0.51767558  0.19365145  0.16951996     0.00100
Br4727     Br  0.59055443  0.10132634  0.17544696     0.00600
Br4728     Br  0.59715749  0.18972701  0.14420857    -0.03800
Br4729     Br  0.57897378  0.21825933  0.21824960     0.00700
Br4730     Br  0.54465887  0.15959829  0.15324146    -0.03100
Br4731     Br  0.56858659  0.13574469  0.19791096    -0.04000
Br4732     Br  0.62304470  0.15693471  0.12401292     0.00000
C4733       C  0.45202040  0.30715662  0.19088300     0.01400
C4734       C  0.45086468  0.32423924  0.20108646     0.04200
C4735       C  0.43924382  0.33898320  0.19455391    -0.11900
C4736       C  0.42935492  0.33716453  0.17745581     0.23500
C4737       C  0.43032569  0.32022681  0.16730925    -0.12400
C4738       C  0.44111539  0.30509851  0.17419712     0.04900
C4739       C  0.41760767  0.35291559  0.17017567     0.27300
C4740       C  0.39804882  0.35291404  0.17343969    -0.13100
C4741       C  0.38668172  0.36713915  0.16562669     0.05400
C4742       C  0.39490112  0.38223383  0.15541407    -0.09100
C4743       C  0.41450714  0.38190676  0.15178750     0.06200
C4744       C  0.42577818  0.36724398  0.15907828    -0.13400
Br4745     Br  0.41692445  0.31796045  0.14370280    -0.05500
Br4746     Br  0.46595484  0.32831126  0.22334684     0.00100
Br4747     Br  0.35966621  0.36448328  0.16717957     0.00600
Br4748     Br  0.45250472  0.36660657  0.15389101    -0.03800
Br4749     Br  0.43988183  0.28136732  0.16087011     0.00700
Br4750     Br  0.43686474  0.36189620  0.20889125    -0.03100
Br4751     Br  0.38688515  0.33325095  0.18866606    -0.04000
Br4752     Br  0.42620951  0.40126457  0.13684029     0.00000
C4753       C  0.53877185  0.29522965  0.15855206     0.01400
C4754       C  0.54300215  0.31337197  0.16546901     0.04200
C4755       C  0.55450742  0.32562739  0.15496671    -0.11900
C4756       C  0.56137564  0.32007221  0.13722416     0.23500
C4757       C  0.55582212  0.30266446  0.12951609    -0.12400
C4758       C  0.54453869  0.29020087  0.14016529     0.04900
C4759       C  0.57623275  0.33148797  0.12788605     0.27300
C4760       C  0.57159182  0.34727792  0.11688997    -0.13100
C4761       C  0.58597189  0.35855681  0.10892930     0.05400
C4762       C  0.60521448  0.35311170  0.11065369    -0.09100
C4763       C  0.60960909  0.33779966  0.12281754     0.06200
C4764       C  0.59521115  0.32717221  0.13135749    -0.13400
Br4765     Br  0.56452513  0.29566468  0.10472261    -0.05500
Br4766     Br  0.53245045  0.32185475  0.18905161     0.00100
Br4767     Br  0.57840537  0.38167450  0.09694493     0.00600
Br4768     Br  0.60137510  0.30658308  0.14816412    -0.03800
Br4769     Br  0.53804975  0.26591793  0.12990465     0.00700
Br4770     Br  0.56173516  0.34970459  0.16527182    -0.03100
Br4771     Br  0.54533209  0.35317749  0.11270004    -0.04000
Br4772     Br  0.63528270  0.33173624  0.12935089     0.00000
C4773       C  0.45831264  0.21289263  0.16432322     0.01400
C4774       C  0.46076355  0.20828454  0.14510906     0.04200
C4775       C  0.44699575  0.19747218  0.13570440    -0.11900
C4776       C  0.43135695  0.19024628  0.14573596     0.23500
C4777       C  0.42932437  0.19429152  0.16507050    -0.12400
C4778       C  0.44212670  0.20641515  0.17400298     0.04900
C4779       C  0.41627992  0.17954037  0.13583754     0.27300
C4780       C  0.39863579  0.18795064  0.13299574    -0.13100
C4781       C  0.38365859  0.17745876  0.12546395     0.05400
C4782       C  0.38686339  0.15935846  0.11730224    -0.09100
C4783       C  0.40491334  0.15088525  0.12042095     0.06200
C4784       C  0.41910865  0.16076420  0.13034656    -0.13400
Br4785     Br  0.40884284  0.18329115  0.17936156    -0.05500
Br4786     Br  0.48303970  0.21638682  0.13167641     0.00100
Br4787     Br  0.35863117  0.18767812  0.12926678     0.00600
Br4788     Br  0.44268499  0.14865803  0.13675655    -0.03800
Br4789     Br  0.43607763  0.21594363  0.19875742     0.00700
Br4790     Br  0.44926676  0.19292158  0.10898315    -0.03100
Br4791     Br  0.39500504  0.21418158  0.13941465    -0.04000
Br4792     Br  0.41170995  0.12614064  0.11157153     0.00000
C4793       C  0.33628641  0.57316864  0.33459147     0.01400
C4794       C  0.33798234  0.56951513  0.31493252     0.04200
C4795       C  0.32284833  0.56143637  0.30494250    -0.11900
C4796       C  0.30673267  0.55515437  0.31459820     0.23500
C4797       C  0.30608398  0.55586934  0.33428803    -0.12400
C4798       C  0.32090749  0.56427814  0.34434575     0.04900
C4799       C  0.29071675  0.54695684  0.30411822     0.27300
C4800       C  0.27509594  0.55826247  0.29963546    -0.13100
C4801       C  0.25996755  0.55068644  0.28940499     0.05400
C4802       C  0.26058943  0.53176629  0.28327727    -0.09100
C4803       C  0.27586997  0.52012820  0.28881283     0.06200
C4804       C  0.29086933  0.52779147  0.29922117    -0.13400
Br4805     Br  0.28451398  0.54527150  0.34736289    -0.05500
Br4806     Br  0.36178481  0.57104147  0.30193096     0.00100
Br4807     Br  0.23786052  0.56604989  0.28521168     0.00600
Br4808     Br  0.31167953  0.51208707  0.30704799    -0.03800
Br4809     Br  0.31973121  0.56190939  0.37150511     0.00700
Br4810     Br  0.32408576  0.55865018  0.27786557    -0.03100
Br4811     Br  0.27439201  0.58412574  0.30788869    -0.04000
Br4812     Br  0.27688793  0.49375474  0.28218497     0.00000
C4813       C  0.26463500  0.47452316  0.21113375     0.01400
C4814       C  0.26388277  0.45961162  0.19810940     0.04200
C4815       C  0.28064422  0.45254752  0.19021144    -0.11900
C4816       C  0.29823527  0.46008803  0.19562920     0.23500
C4817       C  0.29902360  0.47482756  0.20879919    -0.12400
C4818       C  0.28223044  0.48230573  0.21624318     0.04900
C4819       C  0.31576215  0.45278058  0.18683944     0.27300
C4820       C  0.32444726  0.43676390  0.19426527    -0.13100
C4821       C  0.33833291  0.42712591  0.18380626     0.05400
C4822       C  0.34565244  0.43480492  0.16650403    -0.09100
C4823       C  0.33647187  0.45146906  0.15938250     0.06200
C4824       C  0.32191067  0.46027655  0.16965789    -0.13400
Br4825     Br  0.32315508  0.48462912  0.21658629    -0.05500
Br4826     Br  0.23995957  0.44842217  0.19158752     0.00100
Br4827     Br  0.34293896  0.40178814  0.19233561     0.00600
Br4828     Br  0.30901287  0.48221253  0.15972785    -0.03800
Br4829     Br  0.28329511  0.50404183  0.23243120     0.00700
Br4830     Br  0.27960112  0.43250201  0.17191121    -0.03100
Br4831     Br  0.31587692  0.42735263  0.21848816    -0.04000
Br4832     Br  0.34070242  0.46183547  0.13440168     0.00000
C4833       C  0.19794234  0.55549767  0.19096292     0.01400
C4834       C  0.20959533  0.57060297  0.18533468     0.04200
C4835       C  0.20280525  0.58413519  0.17244725    -0.11900
C4836       C  0.18454275  0.58227329  0.16479569     0.23500
C4837       C  0.17313562  0.56687054  0.17003205    -0.12400
C4838       C  0.17964507  0.55374842  0.18334253     0.04900
C4839       C  0.17703560  0.59631356  0.15119520     0.27300
C4840       C  0.16345793  0.60946680  0.15714060    -0.13100
C4841       C  0.15398300  0.62074065  0.14382571     0.05400
C4842       C  0.15878541  0.61971410  0.12448317    -0.09100
C4843       C  0.17283375  0.60677035  0.11870964     0.06200
C4844       C  0.18174950  0.59503695  0.13198411    -0.13400
Br4845     Br  0.14849161  0.56375826  0.15885052    -0.05500
Br4846     Br  0.23504094  0.57230245  0.19472699     0.00100
Br4847     Br  0.13424396  0.63702975  0.15255064     0.00600
Br4848     Br  0.19992225  0.57653082  0.12381266    -0.03800
Br4849     Br  0.16290627  0.53401526  0.19196020     0.00700
Br4850     Br  0.21837284  0.60527403  0.16534020    -0.03100
Br4851     Br  0.15772908  0.61170947  0.18369218    -0.04000
Br4852     Br  0.17885277  0.60353836  0.09240841     0.00000
C4853       C  0.15883324  0.39556535  0.36622237     0.01400
C4854       C  0.15228564  0.41416951  0.36327671     0.04200
C4855       C  0.15808032  0.42440452  0.34726686    -0.11900
C4856       C  0.17160103  0.41683466  0.33489669     0.23500
C4857       C  0.17843382  0.39851982  0.33783853    -0.12400
C4858       C  0.17136253  0.38758625  0.35283043     0.04900
C4859       C  0.17893066  0.42847547  0.31913134     0.27300
C4860       C  0.17225322  0.42575011  0.30060903    -0.13100
C4861       C  0.17819959  0.43785701  0.28602984     0.05400
C4862       C  0.19047991  0.45290058  0.29006318    -0.09100
C4863       C  0.19746639  0.45536857  0.30849547     0.06200
C4864       C  0.19189769  0.44301182  0.32293888    -0.13400
Br4865     Br  0.19761679  0.38851041  0.32130569    -0.05500
Br4866     Br  0.13616395  0.42650454  0.38124430     0.00100
Br4867     Br  0.16979353  0.43375565  0.26050396     0.00600
Br4868     Br  0.20155549  0.44633093  0.34815558    -0.03800
Br4869     Br  0.17714860  0.36108878  0.35320388     0.00700
Br4870     Br  0.14748540  0.44893899  0.34208025    -0.03100
Br4871     Br  0.15445455  0.40588666  0.29538820    -0.04000
Br4872     Br  0.21351516  0.47657583  0.31436744     0.00000
C4873       C  0.16632972  0.54861414  0.28541856     0.01400
C4874       C  0.17433295  0.55206918  0.30330200     0.04200
C4875       C  0.16606318  0.56529927  0.31554585    -0.11900
C4876       C  0.14959843  0.57495425  0.31009821     0.23500
C4877       C  0.14106892  0.57081063  0.29262971    -0.12400
C4878       C  0.14937207  0.55761813  0.28034614     0.04900
C4879       C  0.14153868  0.58986890  0.32243581     0.27300
C4880       C  0.12925331  0.58512307  0.33732134    -0.13100
C4881       C  0.12092604  0.59935544  0.34839673     0.05400
C4882       C  0.12426491  0.61855642  0.34417624    -0.09100
C4883       C  0.13733725  0.62317237  0.32967226     0.06200
C4884       C  0.14599836  0.60887449  0.31902890    -0.13400
Br4885     Br  0.11825080  0.58366165  0.28536845    -0.05500
Br4886     Br  0.19627877  0.53813668  0.31130429     0.00100
Br4887     Br  0.10448863  0.59206629  0.36872357     0.00600
Br4888     Br  0.16377789  0.61525260  0.29935956    -0.03800
Br4889     Br  0.13795641  0.55249366  0.25622797     0.00700
Br4890     Br  0.17748335  0.57061025  0.33962608    -0.03100
Br4891     Br  0.12327637  0.55899139  0.34191437    -0.04000
Br4892     Br  0.14383277  0.64911895  0.32425729     0.00000
C4893       C  0.11344302  0.39782483  0.14770182     0.01400
C4894       C  0.10993055  0.41658613  0.14170116     0.04200
C4895       C  0.11647877  0.43185646  0.15252286    -0.11900
C4896       C  0.12885067  0.42874684  0.16766109     0.23500
C4897       C  0.13457518  0.41031491  0.17201714    -0.12400
C4898       C  0.12693642  0.39498350  0.16211771     0.04900
C4899       C  0.13727919  0.44482511  0.17801482     0.27300
C4900       C  0.15241765  0.45485638  0.17000754    -0.13100
C4901       C  0.16206550  0.46844737  0.18066824     0.05400
C4902       C  0.15745706  0.47123628  0.19996953    -0.09100
C4903       C  0.14119111  0.46215365  0.20744706     0.06200
C4904       C  0.13105843  0.44920468  0.19632449    -0.13400
Br4905     Br  0.15293330  0.40612598  0.19170480    -0.05500
Br4906     Br  0.09917874  0.42239532  0.11753959     0.00100
Br4907     Br  0.18100514  0.48363324  0.16809337     0.00600
Br4908     Br  0.10888142  0.43679780  0.20622411    -0.03800
Br4909     Br  0.13706863  0.37036073  0.16677555     0.00700
Br4910     Br  0.10818038  0.45715414  0.14696285    -0.03100
Br4911     Br  0.16050062  0.44930512  0.14457471    -0.04000
Br4912     Br  0.13278097  0.46627433  0.23304053     0.00000
C4913       C  0.83649679  0.84805284  0.06950763     0.01400
C4914       C  0.84456877  0.83145777  0.06169834     0.04200
C4915       C  0.83300556  0.81621755  0.05652808    -0.11900
C4916       C  0.81328321  0.81784157  0.05759189     0.23500
C4917       C  0.80520144  0.83526727  0.06229104    -0.12400
C4918       C  0.81683163  0.85060184  0.06704630     0.04900
C4919       C  0.80132497  0.80212409  0.05077467     0.27300
C4920       C  0.79564949  0.80188615  0.03174625    -0.13100
C4921       C  0.78627413  0.78609222  0.02444861     0.05400
C4922       C  0.78253324  0.77047026  0.03612447    -0.09100
C4923       C  0.78759676  0.77089807  0.05530589     0.06200
C4924       C  0.79706140  0.78671674  0.06263919    -0.13400
Br4925     Br  0.77815268  0.83818118  0.06192871    -0.05500
Br4926     Br  0.87106504  0.82996127  0.05564060     0.00100
Br4927     Br  0.77896238  0.78562695  0.99825790     0.00600
Br4928     Br  0.80486801  0.78705696  0.08866165    -0.03800
Br4929     Br  0.80638623  0.87549300  0.06495969     0.00700
Br4930     Br  0.84412378  0.79297219  0.04780547    -0.03100
Br4931     Br  0.80160409  0.82287571  0.01543129    -0.04000
Br4932     Br  0.78221103  0.74948223  0.07120176     0.00000
C4933       C  0.66761258  0.84858324  0.93023118     0.01400
C4934       C  0.65978880  0.83347377  0.94117486     0.04200
C4935       C  0.67152771  0.81986242  0.94955346    -0.11900
C4936       C  0.69114638  0.82091621  0.94742262     0.23500
C4937       C  0.69921402  0.83677735  0.93874657    -0.12400
C4938       C  0.68759732  0.85110213  0.93122152     0.04900
C4939       C  0.70299727  0.80520236  0.95465344     0.27300
C4940       C  0.70994651  0.80556307  0.97322309    -0.13100
C4941       C  0.71852294  0.78944087  0.98104138     0.05400
C4942       C  0.72020844  0.77271567  0.97025902    -0.09100
C4943       C  0.71355076  0.77264363  0.95142356     0.06200
C4944       C  0.70519937  0.78888990  0.94366628    -0.13400
Br4945     Br  0.72635723  0.83888758  0.93763974    -0.05500
Br4946     Br  0.63307579  0.83084778  0.94604598     0.00100
Br4947     Br  0.72801311  0.79077028  0.00653017     0.00600
Br4948     Br  0.69607712  0.78879439  0.91802307    -0.03800
Br4949     Br  0.69952312  0.87511626  0.92677114     0.00700
Br4950     Br  0.66083805  0.79938238  0.96417982    -0.03100
Br4951     Br  0.70720481  0.82815474  0.98804802    -0.04000
Br4952     Br  0.71414892  0.74994983  0.93647138     0.00000
C4953       C  0.69774453  0.69666147  0.04510862     0.01400
C4954       C  0.69822312  0.67906428  0.05468680     0.04200
C4955       C  0.68341864  0.67381736  0.06684384    -0.11900
C4956       C  0.66783829  0.68575490  0.06936598     0.23500
C4957       C  0.66691292  0.70294913  0.05952279    -0.12400
C4958       C  0.68182176  0.70848571  0.04750897     0.04900
C4959       C  0.65244622  0.67986916  0.08236538     0.27300
C4960       C  0.63744796  0.66881195  0.07565520    -0.13100
C4961       C  0.62378620  0.66165564  0.08825904     0.05400
C4962       C  0.62523928  0.66516918  0.10785839    -0.09100
C4963       C  0.64093185  0.67560303  0.11449964     0.06200
C4964       C  0.65400277  0.68349199  0.10176144    -0.13400
Br4965     Br  0.64488960  0.71862675  0.06227858    -0.05500
Br4966     Br  0.71902735  0.66173474  0.05179487     0.00100
Br4967     Br  0.60343693  0.64705151  0.07810206     0.00600
Br4968     Br  0.67446685  0.69898461  0.11080872    -0.03800
Br4969     Br  0.67950991  0.73172710  0.03350066     0.00700
Br4970     Br  0.68424806  0.65001941  0.08013976    -0.03100
Br4971     Br  0.63599418  0.66325214  0.04904866    -0.04000
Br4972     Br  0.64633945  0.67706912  0.14104283     0.00000
C4973       C  0.87690203  0.66971654  0.88922797     0.01400
C4974       C  0.88260966  0.68424685  0.90170288     0.04200
C4975       C  0.86933370  0.69292025  0.91363234    -0.11900
C4976       C  0.85028728  0.68747278  0.91302617     0.23500
C4977       C  0.84448067  0.67321269  0.90059226    -0.12400
C4978       C  0.85771891  0.66422683  0.88887178     0.04900
C4979       C  0.83666745  0.69515916  0.92689910     0.27300
C4980       C  0.83390099  0.68548328  0.94395598    -0.13100
C4981       C  0.81950687  0.69108994  0.95628881     0.05400
C4982       C  0.80878511  0.70740848  0.95260918    -0.09100
C4983       C  0.81190389  0.71743201  0.93563174     0.06200
C4984       C  0.82564267  0.71111209  0.92267358    -0.13400
Br4985     Br  0.81823202  0.66586120  0.89995486    -0.05500
Br4986     Br  0.90877406  0.69177672  0.90358208     0.00100
Br4987     Br  0.81254495  0.67447070  0.97642280     0.00600
Br4988     Br  0.82918918  0.72392319  0.89894221    -0.03800
Br4989     Br  0.84901478  0.64476460  0.87219845     0.00700
Br4990     Br  0.87719407  0.71188733  0.93141414    -0.03100
Br4991     Br  0.84953516  0.66403928  0.95006795    -0.04000
Br4992     Br  0.79737960  0.73966374  0.92994372     0.00000
C4993       C  0.71995896  0.67005010  0.95335847     0.01400
C4994       C  0.72799983  0.65490917  0.94337171     0.04200
C4995       C  0.71712884  0.64501255  0.93001682    -0.11900
C4996       C  0.69811193  0.65002749  0.92693889     0.23500
C4997       C  0.68999872  0.66481982  0.93731068    -0.12400
C4998       C  0.70093244  0.67494222  0.95030752     0.04900
C4999       C  0.68661683  0.64029773  0.91242961     0.27300
C5000       C  0.68408724  0.64866115  0.89458419    -0.13100
C5001       C  0.67251356  0.63995412  0.88107558     0.05400
C5002       C  0.66241344  0.62342861  0.88573361    -0.09100
C5003       C  0.66624811  0.61428084  0.90305257     0.06200
C5004       C  0.67794400  0.62292872  0.91652470    -0.13400
Br5005     Br  0.66382699  0.67126449  0.93352428    -0.05500
Br5006     Br  0.75411873  0.64842543  0.94728299     0.00100
Br5007     Br  0.67258556  0.64936551  0.85548527     0.00600
Br5008     Br  0.68242297  0.61087128  0.94052114    -0.03800
Br5009     Br  0.68970826  0.69547982  0.96412830     0.00700
Br5010     Br  0.72835485  0.62498530  0.91553025    -0.03100
Br5011     Br  0.69682981  0.67193828  0.88857493    -0.04000
Br5012     Br  0.65785268  0.58879018  0.90746058     0.00000
C5013       C  0.78872863  0.67042248  0.04706031     0.01400
C5014       C  0.80589218  0.66075597  0.04463368     0.04200
C5015       C  0.81459370  0.65177430  0.05997251    -0.11900
C5016       C  0.80563522  0.65139691  0.07768790     0.23500
C5017       C  0.78818026  0.66056769  0.08012099    -0.12400
C5018       C  0.78019341  0.67075041  0.06504978     0.04900
C5019       C  0.81484578  0.64130541  0.09352146     0.27300
C5020       C  0.81534257  0.62148702  0.09357820    -0.13100
C5021       C  0.82676295  0.61191981  0.10662703     0.05400
C5022       C  0.83740178  0.62219202  0.11998715    -0.09100
C5023       C  0.83415134  0.64163206  0.12191165     0.06200
C5024       C  0.82405335  0.65138247  0.10792967    -0.13400
Br5025     Br  0.77514526  0.65896098  0.10396825    -0.05500
Br5026     Br  0.81760521  0.65938977  0.02040948     0.00100
Br5027     Br  0.82715763  0.58468293  0.10649871     0.00600
Br5028     Br  0.82338172  0.67850694  0.10826666    -0.03800
Br5029     Br  0.75849230  0.68645931  0.06946354     0.00700
Br5030     Br  0.83908019  0.64020600  0.05682447    -0.03100
Br5031     Br  0.80048736  0.60753899  0.07558415    -0.04000
Br5032     Br  0.84022236  0.65414305  0.14521746     0.00000
C5033       C  0.33828106  0.85161701  0.43537305     0.01400
C5034       C  0.31871105  0.85516743  0.43796776     0.04200
C5035       C  0.30642857  0.84040917  0.44344453    -0.11900
C5036       C  0.31370998  0.82244631  0.44764512     0.23500
C5037       C  0.33334082  0.81982764  0.44797641    -0.12400
C5038       C  0.34545705  0.83476064  0.44334332     0.04900
C5039       C  0.30130497  0.80683775  0.45424032     0.27300
C5040       C  0.30087199  0.80231632  0.47359809    -0.13100
C5041       C  0.29274801  0.78532061  0.47970303     0.05400
C5042       C  0.28365805  0.77339699  0.46670481    -0.09100
C5043       C  0.28301279  0.77844352  0.44747462     0.06200
C5044       C  0.29214156  0.79499291  0.44119279    -0.13400
Br5045     Br  0.34376407  0.79555564  0.45464632    -0.05500
Br5046     Br  0.30933828  0.88065289  0.43913684     0.00100
Br5047     Br  0.29482809  0.77802254  0.50587264     0.00600
Br5048     Br  0.29285049  0.80109291  0.41469895    -0.03800
Br5049     Br  0.37125513  0.83289899  0.45128328     0.00700
Br5050     Br  0.27967248  0.84476457  0.44553231    -0.03100
Br5051     Br  0.31203304  0.81922866  0.49170617    -0.04000
Br5052     Br  0.27088985  0.76197811  0.42964223     0.00000
C5053       C  0.16688894  0.84456624  0.57789833     0.01400
C5054       C  0.16550887  0.83807001  0.55887962     0.04200
C5055       C  0.17829045  0.82463477  0.55176717    -0.11900
C5056       C  0.19150270  0.81602695  0.56365805     0.23500
C5057       C  0.19201969  0.82083040  0.58278783    -0.12400
C5058       C  0.17935698  0.83429685  0.59008018     0.04900
C5059       C  0.20317420  0.80031282  0.55620408     0.27300
C5060       C  0.19664319  0.78160447  0.55781164    -0.13100
C5061       C  0.20600438  0.76700873  0.54821092     0.05400
C5062       C  0.22178492  0.77106427  0.53679519    -0.09100
C5063       C  0.22858810  0.78967801  0.53560436     0.06200
C5064       C  0.21950458  0.80421578  0.54555745    -0.13400
Br5065     Br  0.21004642  0.80843724  0.59902875    -0.05500
Br5066     Br  0.14394048  0.84262966  0.54317666     0.00100
Br5067     Br  0.19681076  0.74150670  0.55008088     0.00600
Br5068     Br  0.22909419  0.82961031  0.54442404    -0.03800
Br5069     Br  0.17784422  0.83589374  0.61728425     0.00700
Br5070     Br  0.17715522  0.81691162  0.52558892    -0.03100
Br5071     Br  0.17449939  0.77610508  0.57271481    -0.04000
Br5072     Br  0.24993659  0.79539335  0.51984679     0.00000
C5073       C  0.20109145  0.70053609  0.45305791     0.01400
C5074       C  0.19826276  0.71086881  0.43618590     0.04200
C5075       C  0.18413530  0.70533654  0.42330026    -0.11900
C5076       C  0.17319572  0.68912702  0.42679021     0.23500
C5077       C  0.17600555  0.67874449  0.44344172    -0.12400
C5078       C  0.18968992  0.68444793  0.45659805     0.04900
C5079       C  0.15896560  0.68250549  0.41285889     0.27300
C5080       C  0.14010281  0.68841482  0.41425529    -0.13100
C5081       C  0.12635717  0.68112557  0.40190580     0.05400
C5082       C  0.13119346  0.66716227  0.38845132    -0.09100
C5083       C  0.15009971  0.66076513  0.38772439     0.06200
C5084       C  0.16397109  0.66888041  0.39940433    -0.13400
Br5085     Br  0.16096577  0.65647674  0.44808068    -0.05500
Br5086     Br  0.21462565  0.73165380  0.42971702     0.00100
Br5087     Br  0.10059358  0.68921054  0.40501407     0.00600
Br5088     Br  0.19002488  0.66122705  0.39727700    -0.03800
Br5089     Br  0.19209922  0.67005705  0.47961738     0.00700
Br5090     Br  0.17978430  0.71975499  0.40065255    -0.03100
Br5091     Br  0.13308425  0.70596761  0.43378479    -0.04000
Br5092     Br  0.15749504  0.64060490  0.37132703     0.00000
C5093       C  0.31291282  0.70589947  0.54394735     0.01400
C5094       C  0.31903056  0.71659452  0.55953153     0.04200
C5095       C  0.33232415  0.70902834  0.57222614    -0.11900
C5096       C  0.33975650  0.69087775  0.56922881     0.23500
C5097       C  0.33421058  0.68050791  0.55328963    -0.12400
C5098       C  0.32069381  0.68787405  0.54080730     0.04900
C5099       C  0.35311302  0.68241549  0.58298522     0.27300
C5100       C  0.37255386  0.68606902  0.58145326    -0.13100
C5101       C  0.38526220  0.67781253  0.59424927     0.05400
C5102       C  0.37860043  0.66551578  0.60858415    -0.09100
C5103       C  0.35911555  0.66155994  0.60977854     0.06200
C5104       C  0.34641339  0.67013616  0.59713391    -0.13400
Br5105     Br  0.34476850  0.65585365  0.54897132    -0.05500
Br5106     Br  0.30940765  0.74168423  0.56332825     0.00100
Br5107     Br  0.41196648  0.68259810  0.59116965     0.00600
Br5108     Br  0.31969182  0.66527195  0.59918286    -0.03800
Br5109     Br  0.31163125  0.67235618  0.52042850     0.00700
Br5110     Br  0.34002797  0.72321135  0.59405109    -0.03100
Br5111     Br  0.38171507  0.70222161  0.56150971    -0.04000
Br5112     Br  0.34955340  0.64490288  0.62900634     0.00000
C5113       C  0.15242107  0.62696007  0.60776552     0.01400
C5114       C  0.16282154  0.61740429  0.59368673     0.04200
C5115       C  0.17404804  0.62756261  0.58088285    -0.11900
C5116       C  0.17563412  0.64724026  0.58250325     0.23500
C5117       C  0.16462026  0.65690093  0.59594245    -0.12400
C5118       C  0.15268546  0.64678638  0.60825588     0.04900
C5119       C  0.18948778  0.65749634  0.57053240     0.27300
C5120       C  0.20897237  0.65614248  0.57446842    -0.13100
C5121       C  0.22223791  0.66459954  0.56229519     0.05400
C5122       C  0.21602352  0.67515526  0.54669057    -0.09100
C5123       C  0.19656297  0.67737838  0.54338558     0.06200
C5124       C  0.18333699  0.66802978  0.55485997    -0.13400
Br5125     Br  0.16682122  0.68387282  0.59826223    -0.05500
Br5126     Br  0.16214188  0.59022568  0.59210842     0.00100
Br5127     Br  0.24888632  0.66157503  0.56676949     0.00600
Br5128     Br  0.15683300  0.66934653  0.54888515    -0.03800
Br5129     Br  0.13757420  0.66009729  0.62640419     0.00700
Br5130     Br  0.18788271  0.61446243  0.56145630    -0.03100
Br5131     Br  0.21742481  0.64281251  0.59664153    -0.04000
Br5132     Br  0.18801830  0.69420845  0.52381810     0.00000
C5133       C  0.34326754  0.61924890  0.38737546     0.01400
C5134       C  0.32969241  0.63322945  0.38292475     0.04200
C5135       C  0.31946815  0.64218717  0.39738831    -0.11900
C5136       C  0.32156370  0.63629383  0.41623814     0.23500
C5137       C  0.33459440  0.62203596  0.42065358    -0.12400
C5138       C  0.34610614  0.61430747  0.40646685     0.04900
C5139       C  0.31131962  0.64620278  0.43162159     0.27300
C5140       C  0.32099665  0.65953028  0.44258723    -0.13100
C5141       C  0.31149283  0.66952035  0.45680315     0.05400
C5142       C  0.29184855  0.66692610  0.45969899    -0.09100
C5143       C  0.28228452  0.65298623  0.44902687     0.06200
C5144       C  0.29208334  0.64259451  0.43516108    -0.13400
Br5145     Br  0.33621456  0.61275430  0.44622110    -0.05500
Br5146     Br  0.32499666  0.64044883  0.35702869     0.00100
Br5147     Br  0.32603950  0.68622950  0.47259945     0.00600
Br5148     Br  0.27915197  0.62364716  0.42057366    -0.03800
Br5149     Br  0.36558575  0.59702807  0.41369685     0.00700
Br5150     Br  0.30263655  0.66270059  0.39147005    -0.03100
Br5151     Br  0.34735133  0.66457935  0.43757451    -0.04000
Br5152     Br  0.25557464  0.64856380  0.45227088     0.00000
loop_ 
_geom_bond_atom_site_label_1 
_geom_bond_atom_site_label_2 
_geom_bond_distance 
_geom_bond_site_symmetry_2 
_ccdc_geom_bond_type 
O1           C17   1.276       .  A
O1           Zn7   2.017       .  S
C2           O18   1.277       .  A
C2           O15   1.275       .  A
C2         C5093   1.481       .  S
O3           C16   1.278       .  A
O3          Cd10   2.094       .  S
O4           C22   1.273       .  A
O4          Cd13   2.060       .  S
O5           C19   1.279       .  A
O5           Cd9   2.098       .  S
O6           C17   1.278       .  A
O6           Cd9   2.087       .  S
Zn7          O18   2.035       .  S
Zn7          O20   2.021       .  S
Zn7          O12   1.916       .  S
O8           C19   1.275       .  A
O8          Cd13   2.070       .  S
Cd9          O11   2.109       .  S
Cd9          O12   1.998       .  S
Cd10         O14   2.061       .  S
Cd10         O23   2.086       .  S
Cd10         O12   1.988       .  S
O11          C21   1.281       .  A
O12         Cd13   1.988       .  S
Cd13         O15   2.068       .  S
O14          C21   1.274       .  A
C16          O20   1.276       .  A
C16        C5142   1.496       .  S
C17        C5042   1.477       .  S
C19        C5062   1.478       .  S
C21        C5073   1.495       .  S
C22          O23   1.278       .  A
C22        C5122   1.472       .  S
O24          C40   1.278       .  A
O24         Zn30   2.038   1_556  S
C25          O41   1.276       .  A
C25          O38   1.276       .  A
C25        C4922   1.471       .  S
O26          C39   1.279       .  A
O26         Cd33   2.093       .  S
O27          C45   1.278       .  A
O27         Cd36   2.092       .  S
O28          C42   1.277       .  A
O28         Cd32   2.077       .  S
O29          C40   1.273       .  A
O29         Cd32   2.066       .  S
Zn30         O41   2.021       .  S
Zn30         O43   2.032       .  S
Zn30         O35   1.922       .  S
O31          C42   1.278       .  A
O31         Cd36   2.087   1_556  S
Cd32         O34   2.063       .  S
Cd32         O35   1.977   1_556  S
Cd33         O37   2.089   1_554  S
Cd33         O46   2.062       .  S
Cd33         O35   1.986       .  S
O34          C44   1.276       .  A
O35         Cd36   1.992       .  S
Cd36         O38   2.075       .  S
O37          C44   1.279       .  A
C39          O43   1.276       .  A
C39        C5013   1.482       .  S
C40        C4982   1.486       .  S
C42        C4942   1.493       .  S
C44        C4993   1.476       .  S
C45          O46   1.273       .  A
C45        C4953   1.493       .  S
O47          C63   1.275       .  A
O47         Zn53   2.018       .  S
C48          O64   1.277       .  A
C48          O61   1.274       .  A
C48        C4813   1.476       .  S
O49          C62   1.278       .  A
O49         Cd56   2.089       .  S
O50          C68   1.273       .  A
O50         Cd59   2.051       .  S
O51          C65   1.277       .  A
O51         Cd55   2.070       .  S
O52          C63   1.276       .  A
O52         Cd55   2.077       .  S
Zn53         O64   2.032       .  S
Zn53         O66   2.009       .  S
Zn53         O58   1.902       .  S
O54          C65   1.271       .  A
O54         Cd59   2.052       .  S
Cd55         O57   2.069       .  S
Cd55         O58   1.968       .  S
Cd56         O60   2.092       .  S
Cd56         O69   2.071       .  S
Cd56         O58   1.981       .  S
O57          C67   1.275       .  A
O58         Cd59   1.967       .  S
Cd59         O61   2.063       .  S
O60          C67   1.279       .  A
C62          O66   1.275       .  A
C62        C4902   1.496       .  S
C63        C4833   1.477       .  S
C65        C4802   1.479       .  S
C67        C4873   1.481       .  S
C68          O69   1.276       .  A
C68        C4862   1.469       .  S
O70          C86   1.274       .  A
O70         Zn76   2.008       .  S
C71          O87   1.276       .  A
C71          O84   1.277       .  A
C71        C4673   1.493       .  S
O72          C85   1.275       .  A
O72         Cd79   2.077       .  S
O73          C91   1.281       .  A
O73         Cd82   2.108       .  S
O74          C88   1.280       .  A
O74         Cd78   2.091       .  S
O75          C86   1.277       .  A
O75         Cd78   2.085       .  S
Zn76         O87   2.024       .  S
Zn76         O89   2.016       .  S
Zn76         O81   1.915       .  S
O77          C88   1.281       .  A
O77         Cd82   2.104       .  S
Cd78         O80   2.074       .  S
Cd78         O81   1.980       .  S
Cd79         O83   2.070       .  S
Cd79         O92   2.040       .  S
Cd79         O81   1.990       .  S
O80          C90   1.277       .  A
O81         Cd82   1.991       .  S
Cd82         O84   2.085       .  S
O83          C90   1.275       .  A
C85          O89   1.275       .  A
C85        C4773   1.482       .  S
C86        C4713   1.486       .  S
C88        C4702   1.486       .  S
C90        C4753   1.480       .  S
C91          O92   1.270       .  A
C91        C4733   1.493       .  S
O93         C109   1.273       .  A
O93         Zn99   2.019       .  S
C94         O110   1.275       .  A
C94         O107   1.279       .  A
C94        C4553   1.478       .  S
O95         C108   1.279       .  A
O95        Cd102   2.089       .  S
O96         C114   1.282       .  A
O96        Cd105   2.114       .  S
O97         C111   1.280       .  A
O97        Cd101   2.078       .  S
O98         C109   1.277       .  A
O98        Cd101   2.098       .  S
Zn99        O110   2.013       .  S
Zn99        O112   1.984       .  S
Zn99        O104   1.920       .  S
O100        C111   1.278       .  A
O100       Cd105   2.080       .  S
Cd101       O103   2.071       .  S
Cd101       O104   1.977       .  S
Cd102       O106   2.097       .  S
Cd102       O115   2.072       .  S
Cd102       O104   1.987       .  S
O103        C113   1.276       .  A
O104       Cd105   1.999       .  S
Cd105       O107   2.096       .  S
O106        C113   1.280       .  A
C108        O112   1.271       .  A
C108       C4633   1.466       .  S
C109       C4602   1.483       .  S
C111       C4573   1.481       .  S
C113       C4662   1.489       .  S
C114        O115   1.275       .  A
C114       C4613   1.499       .  S
O116        C132   1.278       .  A
O116       Zn122   2.034       .  S
C117        O133   1.275       .  A
C117        O130   1.277       .  A
C117       C4473   1.485       .  S
O118        C131   1.281       .  A
O118       Cd125   2.099       .  S
O119        C137   1.276       .  A
O119       Cd128   2.065       .  S
O120        C134   1.277       .  A
O120       Cd124   2.076       .  S
O121        C132   1.273       .  A
O121       Cd124   2.058       .  S
Zn122       O133   2.022       .  S
Zn122       O135   2.005       .  S
Zn122       O127   1.917       .  S
O123        C134   1.278       .  A
O123       Cd128   2.083       .  S
Cd124       O126   2.087       .  S
Cd124       O127   1.980       .  S
Cd125       O129   2.073       .  S
Cd125       O138   2.108       .  S
Cd125       O127   1.986       .  S
O126        C136   1.277       .  A
O127       Cd128   1.977       .  S
Cd128       O130   2.087       .  S
O129        C136   1.275       .  A
C131        O135   1.274       .  A
C131       C4513   1.474       .  S
C132       C4433   1.486       .  S
C134       C4453   1.475       .  S
C136       C4502   1.486       .  S
C137        O138   1.282       .  A
C137       C4542   1.486       .  S
O139        C155   1.275       .  A
O139       Zn145   1.988       .  S
C140        O156   1.274       .  A
C140        O153   1.273       .  A
C140       C4373   1.476       .  S
O141        C154   1.279       .  A
O141       Cd148   2.091       .  S
O142        C160   1.271       .  A
O142       Cd151   2.029       .  S
O143        C157   1.275       .  A
O143       Cd147   2.072   1_655  S
O144        C155   1.280       .  A
O144       Cd147   2.089       .  S
Zn145       O156   2.018   1_455  S
Zn145       O158   2.000       .  S
Zn145       O150   1.901   1_455  S
O146        C157   1.276       .  A
O146       Cd151   2.074       .  S
Cd147       O149   2.101       .  S
Cd147       O150   1.981   1_455  S
Cd148       O152   2.067       .  S
Cd148       O161   2.080   1_455  S
Cd148       O150   1.980   1_455  S
O149        C159   1.279       .  A
O150       Cd151   1.980       .  S
Cd151       O153   2.068       .  S
O152        C159   1.273       .  A
C154        O158   1.272       .  A
C154       C4413   1.476       .  S
C155       C4322   1.479       .  S
C157       C4342   1.485       .  S
C159       C4362   1.502       .  S
C160        O161   1.279       .  A
C160       C4402   1.458       .  S
O162        C178   1.274       .  A
O162       Zn168   2.022       .  S
C163        O179   1.277       .  A
C163        O176   1.280       .  A
C163       C4193   1.512       .  S
O164        C177   1.275       .  A
O164       Cd171   2.063       .  S
O165        C183   1.283       .  A
O165       Cd174   2.127       .  S
O166        C180   1.274       .  A
O166       Cd170   2.052       .  S
O167        C178   1.274       .  A
O167       Cd170   2.070       .  S
Zn168       O179   2.033   1_545  S
Zn168       O181   2.009   1_545  S
Zn168       O173   1.907       .  S
O169        C180   1.279       .  A
O169       Cd174   2.092   1_545  S
Cd170       O172   2.048       .  S
Cd170       O173   1.973       .  S
Cd171       O175   2.083   1_565  S
Cd171       O184   2.044       .  S
Cd171       O173   1.981   1_565  S
O172        C182   1.273       .  A
O173       Cd174   1.995   1_545  S
Cd174       O176   2.105       .  S
O175        C182   1.276       .  A
C177        O181   1.275       .  A
C177       C4273   1.466       .  S
C178       C4242   1.489       .  S
C180       C4213   1.472       .  S
C182       C4293   1.471       .  S
C183        O184   1.271       .  A
C183       C4253   1.495       .  S
O185        C201   1.279       .  A
O185       Zn191   2.046       .  S
C186        O202   1.276       .  A
C186        O199   1.280       .  A
C186       C4113   1.487       .  S
O187        C200   1.276       .  A
O187       Cd194   2.075       .  S
O188        C206   1.277       .  A
O188       Cd197   2.076       .  S
O189        C203   1.277       .  A
O189       Cd193   2.090       .  S
O190        C201   1.278       .  A
O190       Cd193   2.092       .  S
Zn191       O202   2.031       .  S
Zn191       O204   2.013       .  S
Zn191       O196   1.929       .  S
O192        C203   1.282       .  A
O192       Cd197   2.116       .  S
Cd193       O195   2.096       .  S
Cd193       O196   1.983       .  S
Cd194       O198   2.059       .  S
Cd194       O207   2.079       .  S
Cd194       O196   1.988       .  S
O195        C205   1.278       .  A
O196       Cd197   1.986       .  S
Cd197       O199   2.106       .  S
O198        C205   1.272       .  A
C200        O204   1.274       .  A
C200       C4173   1.471       .  S
C201       C4073   1.505       .  S
C203       C4102   1.526       .  S
C205       C4133   1.492       .  S
C206        O207   1.277       .  A
C206       C4162   1.482       .  S
C208        C209   1.553       .  S
C208        C214   1.534       .  S
C208        C212   1.530       .  S
C208       C4053   1.552       .  S
C209        H216   1.084       .  S
C209        C210   1.377       .  D
C210        C211   1.546       .  S
C210       C4033   1.506       .  S
C211        C215   1.544       .  S
C211        C213   1.549       .  S
C211        H217   1.109       .  S
C212        H218   1.086       .  S
C212        C213   1.367       .  D
C213       C4142   1.500       .  S
C214        H219   1.085       .  S
C214        C215   1.359       .  D
C215       C4282   1.491       .  S
C220        C221   1.540       .  S
C220        C226   1.528       .  S
C220        C224   1.557       .  S
C220       C4013   1.561       .  S
C221        H228   1.085       .  S
C221        C222   1.371       .  D
C222        C223   1.547       .  S
C222       C4233   1.512       .  S
C223        C227   1.539       .  S
C223        C225   1.552       .  S
C223        H229   1.106       .  S
C224        H230   1.082       .  S
C224        C225   1.383       .  D
C225       C3993   1.518       .  S
C226        H231   1.087       .  S
C226        C227   1.351       .  D
C227       C4393   1.477       .  S
C232        C233   1.542       .  S
C232        C238   1.529       .  S
C232        C236   1.553       .  S
C232       C3973   1.561       .  S
C233        H240   1.086       .  S
C233        C234   1.374       .  D
C234        C235   1.556       .  S
C234       C3933   1.518       .  S
C235        C239   1.549       .  S
C235        C237   1.551       .  S
C235        H241   1.108       .  S
C236        H242   1.081       .  S
C236        C237   1.375       .  D
C237       C3953   1.513       .  S
C238        H243   1.087       .  S
C238        C239   1.354       .  D
C239       C4153   1.492       .  S
C244        C245   1.553       .  S
C244        C250   1.543       .  S
C244        C248   1.519       .  S
C244       C3913   1.549       .  S
C245        H252   1.079       .  S
C245        C246   1.375       .  D
C246        C247   1.544       .  S
C246       C3902   1.521       .  S
C247        C251   1.550       .  S
C247        C249   1.565       .  S
C247        H253   1.097       .  S
C248        H254   1.087       .  S
C248        C249   1.358       .  D
C249       C4353   1.489       .  S
C250        H255   1.084       .  S
C250        C251   1.369       .  D
C251       C4653   1.521       .  S
C256        C257   1.543       .  S
C256        C262   1.541       .  S
C256        C260   1.532       .  S
C256       C3873   1.551       .  S
C257        H264   1.082       .  S
C257        C258   1.365       .  D
C258        C259   1.548       .  S
C258       C4622   1.505       .  S
C259        C263   1.548       .  S
C259        C261   1.552       .  S
C259        H265   1.108       .  S
C260        H266   1.086       .  S
C260        C261   1.372       .  D
C261       C3853   1.507       .  S
C262        H267   1.086       .  S
C262        C263   1.366       .  D
C263       C3842   1.494       .  S
C268        C269   1.561       .  S
C268        C274   1.535       .  S
C268        C272   1.530       .  S
C268       C5053   1.562       .  S
C269        H276   1.080       .  S
C269        C270   1.376       .  D
C270        C271   1.541       .  S
C270       C3822   1.518       .  S
C271        C275   1.543       .  S
C271        C273   1.562       .  S
C271        H277   1.099       .  S
C272        H278   1.086       .  S
C272        C273   1.359       .  D
C273       C3773   1.491       .  S
C274        H279   1.085       .  S
C274        C275   1.369       .  D
C275       C3802   1.513       .  S
O280        C296   1.279       .  A
O280       Zn286   2.070   1_455  S
C281        O297   1.281       .  A
C281        O294   1.274       .  A
C281       C4042   1.483       .  S
O282        C295   1.278       .  A
O282       Cd289   2.092       .  S
O283        C301   1.274       .  A
O283       Cd292   2.083       .  S
O284        C298   1.274       .  A
O284       Cd288   2.079   1_565  S
O285        C296   1.274       .  A
O285       Cd288   2.080       .  S
Zn286       O297   2.062   1_545  S
Zn286       O299   2.046       .  S
Zn286       O291   1.967       .  S
O287        C298   1.276       .  A
O287       Cd292   2.086   1_455  S
Cd288       O290   2.070       .  S
Cd288       O291   2.005   1_455  S
Cd289       O293   2.072       .  S
Cd289       O302   2.101       .  S
Cd289       O291   2.016       .  S
O290        C300   1.276       .  A
O291       Cd292   2.001   1_545  S
Cd292       O294   2.054       .  S
O293        C300   1.275   1_655  A
C295        O299   1.278       .  A
C295       C4002   1.496       .  S
C296       C3893   1.519       .  S
C298       C3813   1.485       .  S
C300       C3862   1.481       .  S
C301        O302   1.277   1_565  A
C301       C3962   1.513       .  S
O303        C319   1.272       .  A
O303       Zn309   2.011       .  S
C304        O320   1.277       .  A
C304        O317   1.274       .  A
C304       C3682   1.481       .  S
O305        C318   1.279       .  A
O305       Cd312   2.087       .  S
O306        C324   1.278       .  A
O306       Cd315   2.087       .  S
O307        C321   1.281       .  A
O307       Cd311   2.090       .  S
O308        C319   1.279       .  A
O308       Cd311   2.092       .  S
Zn309       O320   2.029       .  S
Zn309       O322   1.996       .  S
Zn309       O314   1.926       .  S
O310        C321   1.278       .  A
O310       Cd315   2.075       .  S
Cd311       O313   2.075       .  S
Cd311       O314   1.979       .  S
Cd312       O316   2.097       .  S
Cd312       O325   2.073       .  S
Cd312       O314   1.995       .  S
O313        C323   1.276       .  A
O314       Cd315   1.990       .  S
Cd315       O317   2.076       .  S
O316        C323   1.278       .  A
C318        O322   1.273       .  A
C318       C3742   1.467       .  S
C319       C3693   1.481       .  S
C321       C4022   1.487       .  S
C323       C3753   1.488       .  S
C324        O325   1.275       .  A
C324       C3713   1.493       .  S
O326        C342   1.273       .  A
O326       Zn332   2.014   1_455  S
C327        O343   1.275       .  A
C327        O340   1.277       .  A
C327       C3593   1.481       .  S
O328        C341   1.277       .  A
O328       Cd335   2.084       .  S
O329        C347   1.280       .  A
O329       Cd338   2.097       .  S
O330        C344   1.277       .  A
O330       Cd334   2.068       .  S
O331        C342   1.278       .  A
O331       Cd334   2.092       .  S
Zn332       O343   2.004       .  S
Zn332       O345   1.999       .  S
Zn332       O337   1.896       .  S
O333        C344   1.278       .  A
O333       Cd338   2.083   1_455  S
Cd334       O336   2.043       .  S
Cd334       O337   1.966   1_455  S
Cd335       O339   2.071   1_655  S
Cd335       O348   2.079       .  S
Cd335       O337   1.976       .  S
O336        C346   1.272       .  A
O337       Cd338   1.980       .  S
Cd338       O340   2.075       .  S
O339        C346   1.276       .  A
C341        O345   1.274       .  A
C341       C3662   1.487       .  S
C342       C3633   1.486       .  S
C344       C3622   1.481       .  S
C346       C3793   1.477       .  S
C347        O348   1.277       .  A
C347       C3942   1.492       .  S
C349        C350   1.533       .  S
C349        C355   1.531       .  S
C349        C353   1.552       .  S
C349       C3573   1.555       .  S
C350        H357   1.086       .  S
C350        C351   1.367       .  D
C351        C352   1.549       .  S
C351       C3642   1.505       .  S
C352        C356   1.543       .  S
C352        C354   1.554       .  S
C352        H358   1.106       .  S
C353        H359   1.084       .  S
C353        C354   1.382       .  D
C354       C3553   1.517       .  S
C355        H360   1.086       .  S
C355        C356   1.354       .  D
C356       C5113   1.486       .  S
C361        C362   1.551       .  S
C361        C367   1.538       .  S
C361        C365   1.539       .  S
C361       C4582   1.569       .  S
C362        H369   1.079       .  S
C362        C363   1.372       .  D
C363        C364   1.542       .  S
C363       C4853   1.498       .  S
C364        C368   1.541       .  S
C364        C366   1.546       .  S
C364        H370   1.108       .  S
C365        H371   1.084       .  S
C365        C366   1.367       .  D
C366       C3533   1.502       .  S
C367        H372   1.086       .  S
C367        C368   1.364       .  D
C368       C4422   1.501       .  S
C373        C374   1.547       .  S
C373        C379   1.528       .  S
C373        C377   1.556       .  S
C373       C4093   1.563       .  S
C374        H381   1.084       .  S
C374        C375   1.382       .  D
C375        C376   1.543       .  S
C375       C3513   1.527       .  S
C376        C380   1.554       .  S
C376        C378   1.538       .  S
C376        H382   1.093       .  S
C377        H383   1.080       .  S
C377        C378   1.373       .  D
C378       C3493   1.513       .  S
C379        H384   1.087       .  S
C379        C380   1.353       .  D
C380       C3653   1.482       .  S
C385        C386   1.546       .  S
C385        C391   1.535       .  S
C385        C389   1.533       .  S
C385       C4462   1.556       .  S
C386        H393   1.082       .  S
C386        C387   1.371       .  D
C387        C388   1.550       .  S
C387       C3482   1.500       .  S
C388        C392   1.551       .  S
C388        C390   1.552       .  S
C388        H394   1.109       .  S
C389        H395   1.085       .  S
C389        C390   1.361       .  D
C390       C4382   1.496       .  S
C391        H396   1.086       .  S
C391        C392   1.367       .  D
C392       C3762   1.508       .  S
C397        C398   1.545       .  S
C397        C403   1.539       .  S
C397        C401   1.535       .  S
C397       C3453   1.551       .  S
C398        H405   1.079       .  S
C398        C399   1.364       .  D
C399        C400   1.543       .  S
C399       C3722   1.505       .  S
C400        C404   1.544       .  S
C400        C402   1.549       .  S
C400        H406   1.106       .  S
C401        H407   1.085       .  S
C401        C402   1.374       .  D
C402       C3433   1.508       .  S
C403        H408   1.086       .  S
C403        C404   1.365       .  D
C404       C3422   1.487       .  S
C409        C410   1.532       .  S
C409        C415   1.534       .  S
C409        C413   1.548       .  S
C409       C3393   1.550       .  S
C410        H417   1.086       .  S
C410        C411   1.367       .  D
C411        C412   1.552       .  S
C411       C3382   1.502       .  S
C412        C416   1.550       .  S
C412        C414   1.552       .  S
C412        H418   1.109       .  S
C413        H419   1.083       .  S
C413        C414   1.372       .  D
C414       C5082   1.505       .  S
C415        H420   1.085       .  S
C415        C416   1.360       .  D
C416       C4882   1.500       .  S
O421        C437   1.275       .  A
O421       Zn427   2.030       .  S
C422        O438   1.275       .  A
C422        O435   1.275       .  A
C422       C3522   1.484       .  S
O423        C436   1.279       .  A
O423       Cd430   2.105       .  S
O424        C442   1.275       .  A
O424       Cd433   2.071       .  S
O425        C439   1.272       .  A
O425       Cd429   2.063   1_655  S
O426        C437   1.273       .  A
O426       Cd429   2.057       .  S
Zn427       O438   2.027   1_455  S
Zn427       O440   2.008       .  S
Zn427       O432   1.952       .  S
O428        C439   1.279       .  A
O428       Cd433   2.091       .  S
Cd429       O431   2.049       .  S
Cd429       O432   1.997       .  S
Cd430       O434   2.109       .  S
Cd430       O443   2.101       .  S
Cd430       O432   2.023       .  S
O431        C441   1.271       .  A
O432       Cd433   1.998   1_455  S
Cd433       O435   2.075       .  S
O434        C441   1.280       .  A
C436        O440   1.273       .  A
C436       C3562   1.488       .  S
C437       C3373   1.472       .  S
C439       C3473   1.484       .  S
C441       C3542   1.493       .  S
C442        O443   1.280   1_655  A
C442       C3442   1.494       .  S
C444        C445   1.521       .  S
C444        C450   1.542       .  S
C444        C448   1.545       .  S
C444       C3353   1.544       .  S
C445        H452   1.086       .  S
C445        C446   1.359       .  D
C446        C447   1.563       .  S
C446       C3342   1.485       .  S
C447        C451   1.543       .  S
C447        C449   1.551       .  S
C447        H453   1.099       .  S
C448        H454   1.078       .  S
C448        C449   1.371       .  D
C449       C4482   1.521       .  S
C450        H455   1.085       .  S
C450        C451   1.367       .  D
C451       C4762   1.508       .  S
C456        C457   1.548       .  S
C456        C462   1.533       .  S
C456        C460   1.551       .  S
C456       C3322   1.572       .  S
C457        H464   1.082       .  S
C457        C458   1.371       .  D
C458        C459   1.547       .  S
C458       C4962   1.503       .  S
C459        C463   1.548       .  S
C459        C461   1.550       .  S
C459        H465   1.109       .  S
C460        H466   1.083       .  S
C460        C461   1.374       .  D
C461       C3293   1.515       .  S
C462        H467   1.087       .  S
C462        C463   1.365       .  D
C463       C4522   1.505       .  S
C468        C469   1.556       .  S
C468        C474   1.533       .  S
C468        C472   1.535       .  S
C468       C3273   1.561       .  S
C469        H476   1.082       .  S
C469        C470   1.378       .  D
C470        C471   1.549       .  S
C470       C3253   1.517       .  S
C471        C475   1.547       .  S
C471        C473   1.553       .  S
C471        H477   1.108       .  S
C472        H478   1.086       .  S
C472        C473   1.370       .  D
C473       C3213   1.508       .  S
C474        H479   1.086       .  S
C474        C475   1.359       .  D
C475       C3233   1.496       .  S
C480        C481   1.528       .  S
C480        C486   1.539       .  S
C480        C484   1.546       .  S
C480       C3193   1.550       .  S
C481        H488   1.086       .  S
C481        C482   1.369       .  D
C482        C483   1.553       .  S
C482       C3153   1.507       .  S
C483        C487   1.550       .  S
C483        C485   1.544       .  S
C483        H489   1.106       .  S
C484        H490   1.082       .  S
C484        C485   1.366       .  D
C485       C3173   1.503       .  S
C486        H491   1.086       .  S
C486        C487   1.367       .  D
C487       C3133   1.497       .  S
C492        C493   1.542       .  S
C492        C498   1.525       .  S
C492        C496   1.553       .  S
C492       C3113   1.556       .  S
C493        H500   1.084       .  S
C493        C494   1.376       .  D
C494        C495   1.546       .  S
C494       C3093   1.523       .  S
C495        C499   1.560       .  S
C495        C497   1.541       .  S
C495        H501   1.095       .  S
C496        H502   1.079       .  S
C496        C497   1.373       .  D
C497       C3082   1.513       .  S
C498        H503   1.087       .  S
C498        C499   1.354       .  D
C499       C5002   1.485       .  S
C504        C505   1.545       .  S
C504        C510   1.531       .  S
C504        C508   1.541       .  S
C504       C4822   1.561       .  S
C505        H512   1.082       .  S
C505        C506   1.372       .  D
C506        C507   1.551       .  S
C506       C4742   1.498       .  S
C507        C511   1.549       .  S
C507        C509   1.548       .  S
C507        H513   1.108       .  S
C508        H514   1.084       .  S
C508        C509   1.366       .  D
C509       C3062   1.502       .  S
C510        H515   1.086       .  S
C510        C511   1.363       .  D
C511       C3042   1.508       .  S
O516        C532   1.280       .  A
O516       Zn522   2.063       .  S
C517        O533   1.279       .  A
C517        O530   1.275       .  A
C517       C3302   1.497       .  S
O518        C531   1.278       .  A
O518       Cd525   2.086       .  S
O519        C537   1.272       .  A
O519       Cd528   2.068       .  S
O520        C534   1.277       .  A
O520       Cd524   2.083   1_554  S
O521        C532   1.275       .  A
O521       Cd524   2.074       .  S
Zn522       O533   2.070   1_556  S
Zn522       O535   2.028       .  S
Zn522       O527   1.962       .  S
O523        C534   1.276       .  A
O523       Cd528   2.079       .  S
Cd524       O526   2.084       .  S
Cd524       O527   2.006       .  S
Cd525       O529   2.108       .  S
Cd525       O538   2.091       .  S
Cd525       O527   2.021       .  S
O526        C536   1.276       .  A
O527       Cd528   2.004   1_556  S
Cd528       O530   2.077       .  S
O529        C536   1.279       .  A
C531        O535   1.278       .  A
C531       C3102   1.479       .  S
C532       C3182   1.498       .  S
C534       C3053   1.479       .  S
C536       C3262   1.501       .  S
C537        O538   1.277   1_554  A
C537       C3333   1.501       .  S
O539        C555   1.272       .  A
O539       Zn545   2.004       .  S
C540        O556   1.274       .  A
C540        O553   1.276       .  A
C540       C3582   1.491       .  S
O541        C554   1.279       .  A
O541       Cd548   2.104       .  S
O542        C560   1.278       .  A
O542       Cd551   2.088       .  S
O543        C557   1.275       .  A
O543       Cd547   2.067       .  S
O544        C555   1.274       .  A
O544       Cd547   2.070       .  S
Zn545       O556   2.010       .  S
Zn545       O558   1.981       .  S
Zn545       O550   1.922       .  S
O546        C557   1.275       .  A
O546       Cd551   2.073       .  S
Cd547       O549   2.041       .  S
Cd547       O550   1.974       .  S
Cd548       O552   2.112       .  S
Cd548       O561   2.065       .  S
Cd548       O550   1.996       .  S
O549        C559   1.271       .  A
O550       Cd551   1.990       .  S
Cd551       O553   2.075       .  S
O552        C559   1.282       .  A
C554        O558   1.269       .  A
C554       C3022   1.497       .  S
C555       C2993   1.471       .  S
C557       C2973   1.473       .  S
C559       C3242   1.487       .  S
C560        O561   1.276       .  A
C560       C3162   1.475       .  S
C562        C563   1.548       .  S
C562        C568   1.541       .  S
C562        C566   1.533       .  S
C562       C4082   1.559       .  S
C563        H570   1.077       .  S
C563        C564   1.368       .  D
C564        C565   1.547       .  S
C564       C2953   1.504       .  S
C565        C569   1.550       .  S
C565        C567   1.553       .  S
C565        H571   1.109       .  S
C566        H572   1.086       .  S
C566        C567   1.368       .  D
C567       C4493   1.506       .  S
C568        H573   1.086       .  S
C568        C569   1.369       .  D
C569       C2942   1.507       .  S
C574        C575   1.547       .  S
C574        C580   1.536       .  S
C574        C578   1.545       .  S
C574       C2922   1.565       .  S
C575        H582   1.084       .  S
C575        C576   1.371       .  D
C576        C577   1.542       .  S
C576       C2893   1.500       .  S
C577        C581   1.542       .  S
C577        C579   1.542       .  S
C577        H583   1.108       .  S
C578        H584   1.080       .  S
C578        C579   1.368       .  D
C579       C2873   1.495       .  S
C580        H585   1.087       .  S
C580        C581   1.364       .  D
C581       C3733   1.499       .  S
C586        C587   1.555       .  S
C586        C592   1.532       .  S
C586        C590   1.534       .  S
C586       C2862   1.565       .  S
C587        H594   1.081       .  S
C587        C588   1.379       .  D
C588        C589   1.550       .  S
C588       C2842   1.512       .  S
C589        C593   1.549       .  S
C589        C591   1.548       .  S
C589        H595   1.108       .  S
C590        H596   1.086       .  S
C590        C591   1.361       .  D
C591       C5102   1.493       .  S
C592        H597   1.087       .  S
C592        C593   1.364       .  D
C593       C3013   1.506       .  S
C598        C599   1.550       .  S
C598        C604   1.532       .  S
C598        C602   1.536       .  S
C598       C4793   1.552       .  S
C599        H606   1.082       .  S
C599        C600   1.376       .  D
C600        C601   1.555       .  S
C600       C2793   1.509       .  S
C601        C605   1.549       .  S
C601        C603   1.551       .  S
C601        H607   1.109       .  S
C602        H608   1.086       .  S
C602        C603   1.368       .  D
C603       C2813   1.509       .  S
C604        H609   1.086       .  S
C604        C605   1.355       .  D
C605       C5133   1.495       .  S
C610        C611   1.557       .  S
C610        C616   1.536       .  S
C610        C614   1.535       .  S
C610       C4693   1.569       .  S
C611        H618   1.083       .  S
C611        C612   1.378       .  D
C612        C613   1.543       .  S
C612       C3702   1.516       .  S
C613        C617   1.552       .  S
C613        C615   1.561       .  S
C613        H619   1.100       .  S
C614        H620   1.085       .  S
C614        C615   1.360       .  D
C615       C2782   1.493       .  S
C616        H621   1.086       .  S
C616        C617   1.369       .  D
C617       C4533   1.524       .  S
C622        C623   1.544       .  S
C622        C628   1.545       .  S
C622        C626   1.519       .  S
C622       C4562   1.543       .  S
C623        H630   1.081       .  S
C623        C624   1.369       .  D
C624        C625   1.546       .  S
C624       C3002   1.511       .  S
C625        C629   1.542       .  S
C625        C627   1.559       .  S
C625        H631   1.098       .  S
C626        H632   1.087       .  S
C626        C627   1.356       .  D
C627       C2753   1.482       .  S
C628        H633   1.084       .  S
C628        C629   1.372       .  D
C629       C2733   1.512       .  S
O634        C650   1.274       .  A
O634       Zn640   2.025       .  S
C635        O651   1.274       .  A
C635        O648   1.277       .  A
C635       C2773   1.481       .  S
O636        C649   1.279       .  A
O636       Cd643   2.099       .  S
O637        C655   1.276       .  A
O637       Cd646   2.077       .  S
O638        C652   1.275       .  A
O638       Cd642   2.065       .  S
O639        C650   1.275       .  A
O639       Cd642   2.078       .  S
Zn640       O651   2.029       .  S
Zn640       O653   2.008       .  S
Zn640       O645   1.951       .  S
O641        C652   1.276       .  A
O641       Cd646   2.084       .  S
Cd642       O644   2.073       .  S
Cd642       O645   2.004       .  S
Cd643       O647   2.097       .  S
Cd643       O656   2.105       .  S
Cd643       O645   2.019       .  S
O644        C654   1.274       .  A
O645       Cd646   2.010       .  S
Cd646       O648   2.093       .  S
O647        C654   1.278       .  A
C649        O653   1.273       .  A
C649       C2902   1.495       .  S
C650       C2762   1.475       .  S
C652       C2822   1.481       .  S
C654       C2833   1.489       .  S
C655        O656   1.280       .  A
C655       C2962   1.494       .  S
O657        C673   1.276       .  A
O657       Zn663   2.018       .  S
C658        O674   1.276       .  A
C658        O671   1.278       .  A
C658       C3073   1.481       .  S
O659        C672   1.279       .  A
O659       Cd666   2.104       .  S
O660        C678   1.277       .  A
O660       Cd669   2.077       .  S
O661        C675   1.274       .  A
O661       Cd665   2.064       .  S
O662        C673   1.277       .  A
O662       Cd665   2.085       .  S
Zn663       O674   2.021       .  S
Zn663       O676   2.011       .  S
Zn663       O668   1.909       .  S
O664        C675   1.279       .  A
O664       Cd669   2.094       .  S
Cd665       O667   2.069       .  S
Cd665       O668   1.986       .  S
Cd666       O670   2.065       .  S
Cd666       O679   2.102       .  S
Cd666       O668   1.998       .  S
O667        C677   1.276       .  A
O668       Cd669   1.986       .  S
Cd669       O671   2.090       .  S
O670        C677   1.275       .  A
C672        O676   1.273       .  A
C672       C3142   1.502       .  S
C673       C2853   1.486       .  S
C675       C2673   1.475       .  S
C677       C2702   1.481       .  S
C678        O679   1.280       .  A
C678       C2713   1.484       .  S
O680        C696   1.276       .  A
O680       Zn686   2.015       .  S
C681        O697   1.275       .  A
C681        O694   1.274       .  A
C681       C2593   1.481       .  S
O682        C695   1.278       .  A
O682       Cd689   2.095       .  S
O683        C701   1.274       .  A
O683       Cd692   2.054       .  S
O684        C698   1.280       .  A
O684       Cd688   2.090   1_545  S
O685        C696   1.276       .  A
O685       Cd688   2.077       .  S
Zn686       O697   2.042   1_565  S
Zn686       O699   1.994       .  S
Zn686       O691   1.916   1_565  S
O687        C698   1.276       .  A
O687       Cd692   2.067       .  S
Cd688       O690   2.117       .  S
Cd688       O691   1.990   1_565  S
Cd689       O693   2.082       .  S
Cd689       O702   2.087   1_565  S
Cd689       O691   1.987   1_565  S
O690        C700   1.283       .  A
O691       Cd692   1.972       .  S
Cd692       O694   2.070       .  S
O693        C700   1.277       .  A
C695        O699   1.273       .  A
C695       C2642   1.491       .  S
C696       C2573   1.489       .  S
C698       C3922   1.481       .  S
C700       C2622   1.497       .  S
C701        O702   1.278       .  A
C701       C2653   1.476       .  S
O703        C719   1.273       .  A
O703       Zn709   2.013   1_556  S
C704        O720   1.274       .  A
C704        O717   1.277       .  A
C704       C2482   1.476       .  S
O705        C718   1.278       .  A
O705       Cd712   2.096       .  S
O706        C724   1.279       .  A
O706       Cd715   2.095       .  S
O707        C721   1.276       .  A
O707       Cd711   2.064       .  S
O708        C719   1.275       .  A
O708       Cd711   2.076       .  S
Zn709       O720   2.008       .  S
Zn709       O722   1.985       .  S
Zn709       O714   1.910       .  S
O710        C721   1.278       .  A
O710       Cd715   2.085   1_556  S
Cd711       O713   2.054       .  S
Cd711       O714   1.975   1_556  S
Cd712       O716   2.087   1_554  S
Cd712       O725   2.062       .  S
Cd712       O714   1.992       .  S
O713        C723   1.273       .  A
O714       Cd715   1.993       .  S
Cd715       O717   2.090       .  S
O716        C723   1.277       .  A
C718        O722   1.272       .  A
C718       C2553   1.486       .  S
C719       C2513   1.477       .  S
C721       C3202   1.479       .  S
C723       C2542   1.480       .  S
C724        O725   1.275       .  A
C724       C2493   1.480       .  S
C726        C727   1.549       .  S
C726        C732   1.534       .  S
C726        C730   1.540       .  S
C726       C2453   1.557       .  S
C727        H734   1.082       .  S
C727        C728   1.371       .  D
C728        C729   1.545       .  S
C728       C2442   1.497       .  S
C729        C733   1.546       .  S
C729        C731   1.544       .  S
C729        H735   1.108       .  S
C730        H736   1.085       .  S
C730        C731   1.364       .  D
C731       C2693   1.492       .  S
C732        H737   1.086       .  S
C732        C733   1.366       .  D
C733       C2533   1.506       .  S
C738        C739   1.545       .  S
C738        C744   1.539       .  S
C738        C742   1.538       .  S
C738       C4933   1.560       .  S
C739        H746   1.081       .  S
C739        C740   1.371       .  D
C740        C741   1.553       .  S
C740       C2393   1.504       .  S
C741        C745   1.546       .  S
C741        C743   1.554       .  S
C741        H747   1.108       .  S
C742        H748   1.085       .  S
C742        C743   1.371       .  D
C743       C2422   1.515       .  S
C744        H749   1.086       .  S
C744        C745   1.362       .  D
C745       C2722   1.499       .  S
C750        C751   1.529       .  S
C750        C756   1.545       .  S
C750        C754   1.551       .  S
C750       C2382   1.557       .  S
C751        H758   1.086       .  S
C751        C752   1.366       .  D
C752        C753   1.551       .  S
C752       C2502   1.501       .  S
C753        C757   1.546       .  S
C753        C755   1.547       .  S
C753        H759   1.109       .  S
C754        H760   1.081       .  S
C754        C755   1.373       .  D
C755       C2362   1.510       .  S
C756        H761   1.086       .  S
C756        C757   1.368       .  D
C757       C2633   1.503       .  S
C762        C763   1.532       .  S
C762        C768   1.532       .  S
C762        C766   1.554       .  S
C762       C2333   1.555       .  S
C763        H770   1.085       .  S
C763        C764   1.359       .  D
C764        C765   1.562       .  S
C764       C2313   1.490       .  S
C765        C769   1.552       .  S
C765        C767   1.542       .  S
C765        H771   1.098       .  S
C766        H772   1.083       .  S
C766        C767   1.372       .  D
C767       C2602   1.512       .  S
C768        H773   1.085       .  S
C768        C769   1.370       .  D
C769       C4782   1.523       .  S
C774        C775   1.550       .  S
C774        C780   1.528       .  S
C774        C778   1.537       .  S
C774       C2293   1.559       .  S
C775        H782   1.083       .  S
C775        C776   1.376       .  D
C776        C777   1.549       .  S
C776       C2273   1.500       .  S
C777        C781   1.548       .  S
C777        C779   1.546       .  S
C777        H783   1.107       .  S
C778        H784   1.083       .  S
C778        C779   1.362       .  D
C779       C2253   1.501       .  S
C780        H785   1.087       .  S
C780        C781   1.364       .  D
C781       C2242   1.504       .  S
C786        C787   1.536       .  S
C786        C792   1.528       .  S
C786        C790   1.549       .  S
C786       C4222   1.555       .  S
C787        H794   1.084       .  S
C787        C788   1.365       .  D
C788        C789   1.547       .  S
C788       C4722   1.500       .  S
C789        C793   1.544       .  S
C789        C791   1.547       .  S
C789        H795   1.108       .  S
C790        H796   1.083       .  S
C790        C791   1.373       .  D
C791       C2222   1.498       .  S
C792        H797   1.087       .  S
C792        C793   1.364       .  D
C793       C2193   1.496       .  S
O798        C814   1.275       .  A
O798       Zn804   2.023   1_565  S
C799        O815   1.275       .  A
C799        O812   1.274       .  A
C799       C2282   1.478       .  S
O800        C813   1.275   1_554  A
O800       Cd807   2.083       .  S
O801        C819   1.274       .  A
O801       Cd810   2.060       .  S
O802        C816   1.278       .  A
O802       Cd806   2.096   1_545  S
O803        C814   1.277       .  A
O803       Cd806   2.084   1_556  S
Zn804       O815   2.028       .  S
Zn804       O817   2.018   1_545  S
Zn804       O809   1.951       .  S
O805        C816   1.274       .  A
O805       Cd810   2.070       .  S
Cd806       O808   2.082       .  S
Cd806       O809   2.008   1_564  S
Cd807       O811   2.085       .  S
Cd807       O820   2.080   1_565  S
Cd807       O809   2.016   1_564  S
O808        C818   1.276       .  A
O809       Cd810   1.999   1_556  S
Cd810       O812   2.073   1_554  S
O811        C818   1.277       .  A
C813        O817   1.274       .  A
C813       C2413   1.478       .  S
C814       C2433   1.479       .  S
C816       C2322   1.479       .  S
C818       C2353   1.486       .  S
C819        O820   1.275       .  A
C819       C2213   1.476       .  S
O821        C837   1.273       .  A
O821       Zn827   2.001       .  S
C822        O838   1.275       .  A
C822        O835   1.273       .  A
C822       C2113   1.484       .  S
O823        C836   1.276       .  A
O823       Cd830   2.073       .  S
O824        C842   1.273       .  A
O824       Cd833   2.038       .  S
O825        C839   1.274       .  A
O825       Cd829   2.058   1_455  S
O826        C837   1.278       .  A
O826       Cd829   2.089       .  S
Zn827       O838   2.030   1_655  S
Zn827       O840   1.977       .  S
Zn827       O832   1.910       .  S
O828        C839   1.274       .  A
O828       Cd833   2.062       .  S
Cd829       O831   2.109       .  S
Cd829       O832   1.988       .  S
Cd830       O834   2.054       .  S
Cd830       O843   2.071   1_655  S
Cd830       O832   1.985       .  S
O831        C841   1.279       .  A
O832       Cd833   1.971   1_655  S
Cd833       O835   2.068       .  S
O834        C841   1.272       .  A
C836        O840   1.270       .  A
C836       C2162   1.474       .  S
C837       C4062   1.503       .  S
C839       C3402   1.478       .  S
C841       C2142   1.492       .  S
C842        O843   1.277       .  A
C842       C2182   1.464       .  S
O844        C860   1.274       .  A
O844       Zn850   2.014       .  S
C845        O861   1.275       .  A
C845        O858   1.272       .  A
C845       C2082   1.478       .  S
O846        C859   1.278       .  A
O846       Cd853   2.095       .  S
O847        C865   1.273       .  A
O847       Cd856   2.037       .  S
O848        C862   1.276       .  A
O848       Cd852   2.077   1_554  S
O849        C860   1.274       .  A
O849       Cd852   2.073       .  S
Zn850       O861   2.028   1_556  S
Zn850       O863   2.004       .  S
Zn850       O855   1.912       .  S
O851        C862   1.275       .  A
O851       Cd856   2.074       .  S
Cd852       O854   2.096       .  S
Cd852       O855   1.990       .  S
Cd853       O857   2.058       .  S
Cd853       O866   2.077   1_556  S
Cd853       O855   1.992       .  S
O854        C864   1.278       .  A
O855       Cd856   1.975   1_556  S
Cd856       O858   2.054       .  S
O857        C864   1.274       .  A
C859        O863   1.273       .  A
C859       C2102   1.490       .  S
C860       C2053   1.510       .  S
C862       C3362   1.485       .  S
C864       C2262   1.482       .  S
C865        O866   1.277       .  A
C865       C2202   1.470       .  S
O867        C883   1.277       .  A
O867       Zn873   2.031       .  S
C868        O884   1.274       .  A
C868        O881   1.273       .  A
C868       C3782   1.476       .  S
O869        C882   1.283       .  A
O869       Cd876   2.107       .  S
O870        C888   1.272       .  A
O870       Cd879   2.045       .  S
O871        C885   1.278   1_545  A
O871       Cd875   2.086       .  S
O872        C883   1.277       .  A
O872       Cd875   2.081       .  S
Zn873       O884   2.024   1_545  S
Zn873       O886   1.989       .  S
Zn873       O878   1.914       .  S
O874        C885   1.274       .  A
O874       Cd879   2.049       .  S
Cd875       O877   2.101       .  S
Cd875       O878   1.987       .  S
Cd876       O880   2.064       .  S
Cd876       O889   2.110   1_545  S
Cd876       O878   1.987       .  S
O877        C887   1.279       .  A
O878       Cd879   1.968   1_545  S
Cd879       O881   2.074       .  S
O880        C887   1.273       .  A
C882        O886   1.272       .  A
C882       C3833   1.475       .  S
C883       C2002   1.493       .  S
C885       C2462   1.466       .  S
C887       C2022   1.500       .  S
C888        O889   1.282       .  A
C888       C2033   1.481       .  S
C890        C891   1.547       .  S
C890        C896   1.524       .  S
C890        C894   1.546       .  S
C890       C1973   1.556       .  S
C891        H898   1.079       .  S
C891        C892   1.371       .  D
C892        C893   1.549       .  S
C892       C1962   1.512       .  S
C893        C897   1.552       .  S
C893        C895   1.551       .  S
C893        H899   1.108       .  S
C894        H900   1.085       .  S
C894        C895   1.370       .  D
C895       C2013   1.502       .  S
C896        H901   1.087       .  S
C896        C897   1.361       .  D
C897       C1933   1.498       .  S
C902        C903   1.542       .  S
C902        C908   1.545       .  S
C902        C906   1.531       .  S
C902       C2582   1.550       .  S
C903        H910   1.085       .  S
C903        C904   1.366       .  D
C904        C905   1.545       .  S
C904       C1913   1.493       .  S
C905        C909   1.544       .  S
C905        C907   1.547       .  S
C905        H911   1.109       .  S
C906        H912   1.086       .  S
C906        C907   1.367       .  D
C907       C2122   1.499       .  S
C908        H913   1.084       .  S
C908        C909   1.368       .  D
C909       C2562   1.498       .  S
C914        C915   1.536       .  S
C914        C920   1.529       .  S
C914        C918   1.552       .  S
C914       C4333   1.556       .  S
C915        H922   1.105       .  S
C915        C916   1.368       .  D
C916        C917   1.550       .  S
C916       C1893   1.503       .  S
C917        C921   1.546       .  S
C917        C919   1.549       .  S
C917        H923   1.109       .  S
C918        H924   1.081       .  S
C918        C919   1.376       .  D
C919       C2073   1.509       .  S
C920        H925   1.088       .  S
C920        C921   1.357       .  D
C921       C4302   1.488       .  S
C926        C927   1.549       .  S
C926        C932   1.533       .  S
C926        C930   1.535       .  S
C926       C4913   1.551       .  S
C927        H934   1.083       .  S
C927        C928   1.368       .  D
C928        C929   1.541       .  S
C928       C4262   1.499       .  S
C929        C933   1.545       .  S
C929        C931   1.549       .  S
C929        H935   1.107       .  S
C930        H936   1.086       .  S
C930        C931   1.373       .  D
C931       C1873   1.499       .  S
C932        H937   1.084       .  S
C932        C933   1.362       .  D
C933       C2153   1.497       .  S
C938        C939   1.535       .  S
C938        C944   1.536       .  S
C938        C942   1.553       .  S
C938       C3613   1.558       .  S
C939        H946   1.086       .  S
C939        C940   1.369       .  D
C940        C941   1.548       .  S
C940       C2522   1.499       .  S
C941        C945   1.548       .  S
C941        C943   1.546       .  S
C941        H947   1.109       .  S
C942        H948   1.083       .  S
C942        C943   1.373       .  D
C943       C1853   1.509       .  S
C944        H949   1.086       .  S
C944        C945   1.363       .  D
C945       C2042   1.498       .  S
C950        C951   1.550       .  S
C950        C956   1.541       .  S
C950        C954   1.521       .  S
C950       C1842   1.552       .  S
C951        H958   1.079       .  S
C951        C952   1.375       .  D
C952        C953   1.544       .  S
C952       C1793   1.515       .  S
C953        C957   1.548       .  S
C953        C955   1.562       .  S
C953        H959   1.096       .  S
C954        H960   1.087       .  S
C954        C955   1.359       .  D
C955       C1813   1.487       .  S
C956        H961   1.083       .  S
C956        C957   1.368       .  D
C957       C2093   1.520       .  S
O962        C978   1.277       .  A
O962       Zn968   2.048   1_654  S
C963        O979   1.279       .  A
C963        O976   1.272       .  A
C963       C1953   1.480       .  S
O964        C977   1.279       .  A
O964       Cd971   2.104   1_545  S
O965        C983   1.273       .  A
O965       Cd974   2.063       .  S
O966        C980   1.275       .  A
O966       Cd970   2.074   1_465  S
O967        C978   1.273       .  A
O967       Cd970   2.064       .  S
Zn968       O979   2.049       .  S
Zn968       O981   2.029   1_455  S
Zn968       O973   1.950   1_556  S
O969        C980   1.275       .  A
O969       Cd974   2.070   1_554  S
Cd970       O972   2.053   1_545  S
Cd970       O973   2.001   1_655  S
Cd971       O975   2.088   1_556  S
Cd971       O984   2.107   1_655  S
Cd971       O973   2.016   1_666  S
O972        C982   1.272       .  A
O973       Cd974   1.995   1_544  S
Cd974       O976   2.053   1_565  S
O975        C982   1.278       .  A
C977        O981   1.276       .  A
C977       C1822   1.500       .  S
C978       C1902   1.485       .  S
C980       C1922   1.479       .  S
C982       C1882   1.479       .  S
C983        O984   1.280       .  A
C983       C1862   1.497       .  S
O985       C1001   1.275       .  A
O985       Zn991   2.009       .  S
C986       O1002   1.274       .  A
C986        O999   1.275       .  A
C986       C1762   1.484       .  S
O987       C1000   1.281       .  A
O987       Cd994   2.112       .  S
O988       C1006   1.272       .  A
O988       Cd997   2.051       .  S
O989       C1003   1.277       .  A
O989       Cd993   2.080   1_554  S
O990       C1001   1.277       .  A
O990       Cd993   2.089       .  S
Zn991      O1002   2.024   1_556  S
Zn991      O1004   1.981       .  S
Zn991       O996   1.901   1_556  S
O992       C1003   1.274       .  A
O992       Cd997   2.056       .  S
Cd993       O995   2.092       .  S
Cd993       O996   1.987   1_556  S
Cd994       O998   2.084       .  S
Cd994      O1007   2.106   1_556  S
Cd994       O996   1.994   1_556  S
O995       C1005   1.279       .  A
O996       Cd997   1.968       .  S
Cd997       O999   2.074       .  S
O998       C1005   1.279       .  A
C1000      O1004   1.271       .  A
C1000      C1782   1.495       .  S
C1001      C1982   1.487       .  S
C1003      C2342   1.467       .  S
C1005      C3222   1.488       .  S
C1006      O1007   1.281       .  A
C1006      C3033   1.492       .  S
O1008      C1024   1.276       .  A
O1008     Zn1014   2.016       .  S
C1009      O1025   1.276       .  A
C1009      O1022   1.275       .  A
C1009      C3502   1.483       .  S
O1010      C1023   1.276       .  A
O1010     Cd1017   2.075       .  S
O1011      C1029   1.276       .  A
O1011     Cd1020   2.067       .  S
O1012      C1026   1.277       .  A
O1012     Cd1016   2.084       .  S
O1013      C1024   1.279       .  A
O1013     Cd1016   2.090       .  S
Zn1014     O1025   2.029       .  S
Zn1014     O1027   2.002       .  S
Zn1014     O1019   1.914       .  S
O1015      C1026   1.278       .  A
O1015     Cd1020   2.083       .  S
Cd1016     O1018   2.107       .  S
Cd1016     O1019   1.992       .  S
Cd1017     O1021   2.046       .  S
Cd1017     O1030   2.072       .  S
Cd1017     O1019   1.982       .  S
O1018      C1028   1.280       .  A
O1019     Cd1020   1.978       .  S
Cd1020     O1022   2.081       .  S
O1021      C1028   1.271       .  A
C1023      O1027   1.273       .  A
C1023      C3413   1.476       .  S
C1024      C2913   1.475       .  S
C1026      C3122   1.499       .  S
C1028      C1713   1.480       .  S
C1029      O1030   1.276       .  A
C1029      C1733   1.480       .  S
O1031      C1047   1.271       .  A
O1031     Zn1037   2.000   1_655  S
C1032      O1048   1.275       .  A
C1032      O1045   1.278       .  A
C1032      C3882   1.481       .  S
O1033      C1046   1.279       .  A
O1033     Cd1040   2.097       .  S
O1034      C1052   1.279       .  A
O1034     Cd1043   2.093       .  S
O1035      C1049   1.278       .  A
O1035     Cd1039   2.088       .  S
O1036      C1047   1.276       .  A
O1036     Cd1039   2.082       .  S
Zn1037     O1048   2.008       .  S
Zn1037     O1050   1.993       .  S
Zn1037     O1042   1.916   1_455  S
O1038      C1049   1.277       .  A
O1038     Cd1043   2.079   1_655  S
Cd1039     O1041   2.067       .  S
Cd1039     O1042   1.975       .  S
Cd1040     O1044   2.108   1_455  S
Cd1040     O1053   2.064       .  S
Cd1040     O1042   1.988   1_455  S
O1041      C1051   1.276       .  A
O1042     Cd1043   1.989   1_655  S
Cd1043     O1045   2.094       .  S
O1044      C1051   1.280       .  A
C1046      O1050   1.272       .  A
C1046      C1942   1.473       .  S
C1047      C1802   1.476       .  S
C1049      C3462   1.495       .  S
C1051      C1693   1.493       .  S
C1052      O1053   1.276       .  A
C1052      C1673   1.476       .  S
C1054      C1055   1.555       .  S
C1054      C1060   1.526       .  S
C1054      C1058   1.531       .  S
C1054      C2062   1.543       .  S
C1055      H1062   1.083       .  S
C1055      C1056   1.378       .  D
C1056      C1057   1.544       .  S
C1056      C1653   1.516       .  S
C1057      C1061   1.557       .  S
C1057      C1059   1.549       .  S
C1057      H1063   1.095       .  S
C1058      H1064   1.086       .  S
C1058      C1059   1.372       .  D
C1059      C1722   1.518       .  S
C1060      H1065   1.087       .  S
C1060      C1061   1.350       .  D
C1061      C1702   1.483       .  S
C1066      C1067   1.530       .  S
C1066      C1072   1.541       .  S
C1066      C1070   1.543       .  S
C1066      C2982   1.549       .  S
C1067      H1074   1.086       .  S
C1067      C1068   1.369       .  D
C1068      C1069   1.550       .  S
C1068      C1682   1.503       .  S
C1069      C1073   1.548       .  S
C1069      C1071   1.545       .  S
C1069      H1075   1.108       .  S
C1070      H1076   1.081       .  S
C1070      C1071   1.364       .  D
C1071      C1642   1.499       .  S
C1072      H1077   1.086       .  S
C1072      C1073   1.369       .  D
C1073      C1773   1.498       .  S
C1078      C1079   1.536       .  S
C1078      C1084   1.531       .  S
C1078      C1082   1.549       .  S
C1078      C3602   1.558       .  S
C1079      H1086   1.085       .  S
C1079      C1080   1.363       .  D
C1080      C1081   1.548       .  S
C1080      C4973   1.495       .  S
C1081      C1085   1.548       .  S
C1081      C1083   1.547       .  S
C1081      H1087   1.109       .  S
C1082      H1088   1.081       .  S
C1082      C1083   1.373       .  D
C1083      C1613   1.499       .  S
C1084      H1089   1.087       .  S
C1084      C1085   1.365       .  D
C1085      C1742   1.504       .  S
C1090      C1091   1.529       .  S
C1090      C1096   1.553       .  S
C1090      C1094   1.532       .  S
C1090      C4313   1.547       .  S
C1091      H1098   1.087       .  S
C1091      C1092   1.359       .  D
C1092      C1093   1.561       .  S
C1092      C1593   1.483       .  S
C1093      C1097   1.537       .  S
C1093      C1095   1.553       .  S
C1093      H1099   1.101       .  S
C1094      H1100   1.085       .  S
C1094      C1095   1.367       .  D
C1095      C1753   1.515       .  S
C1096      H1101   1.082       .  S
C1096      C1097   1.371       .  D
C1097      C4893   1.508       .  S
C1102      C1103   1.556       .  S
C1102      C1108   1.522       .  S
C1102      C1106   1.536       .  S
C1102      C4442   1.549       .  S
C1103      H1110   1.078       .  S
C1103      C1104   1.374       .  D
C1104      C1105   1.541       .  S
C1104      C1582   1.515       .  S
C1105      C1109   1.560       .  S
C1105      C1107   1.554       .  S
C1105      H1111   1.097       .  S
C1106      H1112   1.085       .  S
C1106      C1107   1.373       .  D
C1107      C2133   1.523       .  S
C1108      H1113   1.088       .  S
C1108      C1109   1.350       .  D
C1109      C5022   1.483       .  S
C1114      C1115   1.545       .  S
C1114      C1120   1.536       .  S
C1114      C1118   1.539       .  S
C1114      C2473   1.554       .  S
C1115      H1122   1.084       .  S
C1115      C1116   1.366       .  D
C1116      C1117   1.545       .  S
C1116      C4842   1.497       .  S
C1117      C1121   1.543       .  S
C1117      C1119   1.550       .  S
C1117      H1123   1.109       .  S
C1118      H1124   1.086       .  S
C1118      C1119   1.374       .  D
C1119      C1562   1.505       .  S
C1120      H1125   1.084       .  S
C1120      C1121   1.363       .  D
C1121      C2173   1.494       .  S
O1126      C1142   1.277       .  A
O1126     Zn1132   2.045   1_455  S
C1127      O1143   1.276       .  A
C1127      O1140   1.278       .  A
C1127      C1622   1.483       .  S
O1128      C1141   1.280       .  A
O1128     Cd1135   2.109       .  S
O1129      C1147   1.275       .  A
O1129     Cd1138   2.071       .  S
O1130      C1144   1.273       .  A
O1130     Cd1134   2.066   1_556  S
O1131      C1142   1.274       .  A
O1131     Cd1134   2.073       .  S
Zn1132     O1143   2.034   1_554  S
Zn1132     O1145   2.017       .  S
Zn1132     O1137   1.953   1_554  S
O1133      C1144   1.277       .  A
O1133     Cd1138   2.091   1_455  S
Cd1134     O1136   2.049       .  S
Cd1134     O1137   1.998   1_454  S
Cd1135     O1139   2.107       .  S
Cd1135     O1148   2.113   1_554  S
Cd1135     O1137   2.024   1_554  S
O1136      C1146   1.271       .  A
O1137     Cd1138   2.003       .  S
Cd1138     O1140   2.085       .  S
O1139      C1146   1.279   1_655  A
C1141      O1145   1.273       .  A
C1141      C1573   1.500       .  S
C1142      C1553   1.481       .  S
C1144      C1633   1.486       .  S
C1146      C1602   1.497       .  S
C1147      O1148   1.282       .  A
C1147      C1662   1.496       .  S
O1149      C1165   1.276       .  A
O1149     Zn1155   2.034       .  S
C1150      O1166   1.277       .  A
C1150      O1163   1.279       .  A
C1150      C2373   1.504       .  S
O1151      C1164   1.278       .  A
O1151     Cd1158   2.094       .  S
O1152      C1170   1.280       .  A
O1152     Cd1161   2.108       .  S
O1153      C1167   1.279       .  A
O1153     Cd1157   2.094       .  S
O1154      C1165   1.277       .  A
O1154     Cd1157   2.088       .  S
Zn1155     O1166   2.032       .  S
Zn1155     O1168   1.996       .  S
Zn1155     O1160   1.932       .  S
O1156      C1167   1.276       .  A
O1156     Cd1161   2.078       .  S
Cd1157     O1159   2.067       .  S
Cd1157     O1160   1.991       .  S
Cd1158     O1162   2.085       .  S
Cd1158     O1171   2.059       .  S
Cd1158     O1160   2.003       .  S
O1159      C1169   1.276       .  A
O1160     Cd1161   1.999       .  S
Cd1161     O1163   2.089       .  S
O1162      C1169   1.277       .  A
C1164      O1168   1.272       .  A
C1164      C1542   1.477       .  S
C1165      C1513   1.489       .  S
C1167      C3313   1.491       .  S
C1169      C2933   1.480       .  S
C1170      O1171   1.274       .  A
C1170      C2802   1.489       .  S
O1172      C1188   1.276       .  A
O1172     Zn1178   2.012       .  S
C1173      O1189   1.275       .  A
C1173      O1186   1.277       .  A
C1173      C1473   1.485       .  S
O1174      C1187   1.279       .  A
O1174     Cd1181   2.100       .  S
O1175      C1193   1.275       .  A
O1175     Cd1184   2.057       .  S
O1176      C1190   1.279       .  A
O1176     Cd1180   2.089       .  S
O1177      C1188   1.276       .  A
O1177     Cd1180   2.071       .  S
Zn1178     O1189   2.024       .  S
Zn1178     O1191   1.999       .  S
Zn1178     O1183   1.914       .  S
O1179      C1190   1.279       .  A
O1179     Cd1184   2.088       .  S
Cd1180     O1182   2.100       .  S
Cd1180     O1183   1.991       .  S
Cd1181     O1185   2.042       .  S
Cd1181     O1194   2.085       .  S
Cd1181     O1183   1.985       .  S
O1182      C1192   1.279       .  A
O1183     Cd1184   1.974       .  S
Cd1184     O1186   2.082       .  S
O1185      C1192   1.271       .  A
C1187      O1191   1.272       .  A
C1187      C1502   1.475       .  S
C1188      C2302   1.475       .  S
C1190      C3282   1.489       .  S
C1192      C2882   1.488       .  S
C1193      O1194   1.278       .  A
C1193      C2742   1.482       .  S
O1195      C1211   1.273       .  A
O1195     Zn1201   2.016   1_565  S
C1196      O1212   1.277       .  A
C1196      O1209   1.277       .  A
C1196      C1833   1.482       .  S
O1197      C1210   1.277       .  A
O1197     Cd1204   2.082       .  S
O1198      C1216   1.278       .  A
O1198     Cd1207   2.104       .  S
O1199      C1213   1.281       .  A
O1199     Cd1203   2.092       .  S
O1200      C1211   1.279       .  A
O1200     Cd1203   2.104       .  S
Zn1201     O1212   2.033       .  S
Zn1201     O1214   1.996       .  S
Zn1201     O1206   1.925       .  S
O1202      C1213   1.277   1_545  A
O1202     Cd1207   2.077       .  S
Cd1203     O1205   2.062       .  S
Cd1203     O1206   1.986   1_565  S
Cd1204     O1208   2.078   1_545  S
Cd1204     O1217   2.059       .  S
Cd1204     O1206   1.989       .  S
O1205      C1215   1.275       .  A
O1206     Cd1207   1.994       .  S
Cd1207     O1209   2.081       .  S
O1208      C1215   1.277       .  A
C1210      O1214   1.273       .  A
C1210      C2233   1.488       .  S
C1211      C2402   1.493       .  S
C1213      C3982   1.480       .  S
C1215      C1453   1.477       .  S
C1216      O1217   1.271       .  A
C1216      C1442   1.507       .  S
C1218      C1219   1.553       .  S
C1218      C1224   1.533       .  S
C1218      C1222   1.539       .  S
C1218      C1993   1.558       .  S
C1219      H1226   1.080       .  S
C1219      C1220   1.371       .  D
C1220      C1221   1.542       .  S
C1220      C1422   1.502       .  S
C1221      C1225   1.546       .  S
C1221      C1223   1.553       .  S
C1221      H1227   1.108       .  S
C1222      H1228   1.086       .  S
C1222      C1223   1.375       .  D
C1223      C1482   1.514       .  S
C1224      H1229   1.086       .  S
C1224      C1225   1.359       .  D
C1225      C4642   1.492       .  S
C1230      C1231   1.550       .  S
C1230      C1236   1.521       .  S
C1230      C1234   1.546       .  S
C1230      C2682   1.561       .  S
C1231      H1238   1.077       .  S
C1231      C1232   1.373       .  D
C1232      C1233   1.548       .  S
C1232      C1393   1.514       .  S
C1233      C1237   1.553       .  S
C1233      C1235   1.554       .  S
C1233      H1239   1.108       .  S
C1234      H1240   1.086       .  S
C1234      C1235   1.373       .  D
C1235      C4122   1.507       .  S
C1236      H1241   1.087       .  S
C1236      C1237   1.358       .  D
C1237      C1462   1.498       .  S
C1242      C1243   1.531       .  S
C1242      C1248   1.549       .  S
C1242      C1246   1.540       .  S
C1242      C3673   1.554       .  S
C1243      H1250   1.085       .  S
C1243      C1244   1.360       .  D
C1244      C1245   1.562       .  S
C1244      C1433   1.489       .  S
C1245      C1249   1.542       .  S
C1245      C1247   1.549       .  S
C1245      H1251   1.101       .  S
C1246      H1252   1.084       .  S
C1246      C1247   1.374       .  D
C1247      C1382   1.521       .  S
C1248      H1253   1.083       .  S
C1248      C1249   1.369       .  D
C1249      C1493   1.511       .  S
C1254      C1255   1.535       .  S
C1254      C1260   1.541       .  S
C1254      C1258   1.546       .  S
C1254      C5033   1.553       .  S
C1255      H1262   1.086       .  S
C1255      C1256   1.374       .  D
C1256      C1257   1.552       .  S
C1256      C1353   1.508       .  S
C1257      C1261   1.543       .  S
C1257      C1259   1.548       .  S
C1257      H1263   1.107       .  S
C1258      H1264   1.081       .  S
C1258      C1259   1.369       .  D
C1259      C2613   1.511       .  S
C1260      H1265   1.086       .  S
C1260      C1261   1.362       .  D
C1261      C1533   1.491       .  S
C1266      C1267   1.539       .  S
C1266      C1272   1.537       .  S
C1266      C1270   1.552       .  S
C1266      C4202   1.566       .  S
C1267      H1274   1.086       .  S
C1267      C1268   1.371       .  D
C1268      C1269   1.551       .  S
C1268      C1522   1.513       .  S
C1269      C1273   1.547       .  S
C1269      C1271   1.549       .  S
C1269      H1275   1.109       .  S
C1270      H1276   1.082       .  S
C1270      C1271   1.374       .  D
C1271      C1333   1.511       .  S
C1272      H1277   1.086       .  S
C1272      C1273   1.363       .  D
C1273      C4182   1.496       .  S
C1278      C1279   1.550       .  S
C1278      C1284   1.521       .  S
C1278      C1282   1.546       .  S
C1278      C4682   1.560       .  S
C1279      H1286   1.086       .  S
C1279      C1280   1.376       .  D
C1280      C1281   1.554       .  S
C1280      C4593   1.514       .  S
C1281      C1285   1.551       .  S
C1281      C1283   1.551       .  S
C1281      H1287   1.108       .  S
C1282      H1288   1.077       .  S
C1282      C1283   1.372       .  D
C1283      C1313   1.516       .  S
C1284      H1289   1.087       .  S
C1284      C1285   1.358       .  D
C1285      C2662   1.493       .  S
O1290      C1306   1.272       .  A
O1290     Zn1296   2.005       .  S
C1291      O1307   1.272       .  A
C1291      O1304   1.275   1_565  A
C1291      C1362   1.478       .  S
O1292      C1305   1.279   1_545  A
O1292     Cd1299   2.107       .  S
O1293      C1311   1.274       .  A
O1293     Cd1302   2.066       .  S
O1294      C1308   1.279       .  A
O1294     Cd1298   2.105       .  S
O1295      C1306   1.279       .  A
O1295     Cd1298   2.098   1_565  S
Zn1296     O1307   2.009       .  S
Zn1296     O1309   2.008       .  S
Zn1296     O1301   1.944   1_565  S
O1297      C1308   1.273       .  A
O1297     Cd1302   2.062       .  S
Cd1298     O1300   2.074       .  S
Cd1298     O1301   2.011       .  S
Cd1299     O1303   2.099       .  S
Cd1299     O1312   2.099       .  S
Cd1299     O1301   2.020       .  S
O1300      C1310   1.276       .  A
O1301     Cd1302   2.003       .  S
Cd1302     O1304   2.077       .  S
O1303      C1310   1.280       .  A
C1305      O1309   1.273       .  A
C1305      C1342   1.496       .  S
C1306      C1402   1.488       .  S
C1308      C1413   1.480       .  S
C1310      C1373   1.488       .  S
C1311      O1312   1.279       .  A
C1311      C1322   1.483       .  S
C1313      C1314   1.424       .  A
C1313      C1318   1.425       .  A
C1314      C1315   1.411       .  A
C1314     Br1326   1.924       .  S
C1315      C1316   1.407       .  A
C1315     Br1330   1.937       .  S
C1316      C1319   1.495       .  S
C1316      C1317   1.407       .  A
C1317      C1318   1.413       .  A
C1317     Br1325   1.931       .  S
C1318     Br1329   1.935       .  S
C1319      C1320   1.411       .  A
C1319      C1324   1.412       .  A
C1320      C1321   1.411       .  A
C1320     Br1331   1.930       .  S
C1321      C1322   1.412       .  A
C1321     Br1327   1.930       .  S
C1322      C1323   1.410       .  A
C1323      C1324   1.410       .  A
C1323     Br1332   1.930       .  S
C1324     Br1328   1.929       .  S
C1333      C1334   1.420       .  A
C1333      C1338   1.420       .  A
C1334      C1335   1.412       .  A
C1334     Br1346   1.920       .  S
C1335      C1336   1.407       .  A
C1335     Br1350   1.934       .  S
C1336      C1339   1.495       .  S
C1336      C1337   1.407       .  A
C1337      C1338   1.412       .  A
C1337     Br1345   1.930       .  S
C1338     Br1349   1.928       .  S
C1339      C1340   1.408       .  A
C1339      C1344   1.410       .  A
C1340      C1341   1.410       .  A
C1340     Br1351   1.930       .  S
C1341      C1342   1.418       .  A
C1341     Br1347   1.934       .  S
C1342      C1343   1.417       .  A
C1343      C1344   1.413       .  A
C1343     Br1352   1.928   1_565  S
C1344     Br1348   1.930       .  S
C1353      C1354   1.423       .  A
C1353      C1358   1.423       .  A
C1354      C1355   1.410       .  A
C1354     Br1366   1.934       .  S
C1355      C1356   1.404       .  A
C1355     Br1370   1.931       .  S
C1356      C1359   1.486       .  S
C1356      C1357   1.405       .  A
C1357      C1358   1.410       .  A
C1357     Br1365   1.936       .  S
C1358     Br1369   1.924       .  S
C1359      C1360   1.409       .  A
C1359      C1364   1.409       .  A
C1360      C1361   1.407       .  A
C1360     Br1371   1.930       .  S
C1361      C1362   1.411       .  A
C1361     Br1367   1.931       .  S
C1362      C1363   1.412       .  A
C1363      C1364   1.409       .  A
C1363     Br1372   1.931       .  S
C1364     Br1368   1.929       .  S
C1373      C1374   1.414       .  A
C1373      C1378   1.414       .  A
C1374      C1375   1.411       .  A
C1374     Br1386   1.927       .  S
C1375      C1376   1.409       .  A
C1375     Br1390   1.928       .  S
C1376      C1379   1.489       .  S
C1376      C1377   1.408       .  A
C1377      C1378   1.407       .  A
C1377     Br1385   1.933       .  S
C1378     Br1389   1.926       .  S
C1379      C1380   1.402       .  A
C1379      C1384   1.401       .  A
C1380      C1381   1.413       .  A
C1380     Br1391   1.935       .  S
C1381      C1382   1.430       .  A
C1381     Br1387   1.926       .  S
C1382      C1383   1.431       .  A
C1383      C1384   1.411       .  A
C1383     Br1392   1.933       .  S
C1384     Br1388   1.936       .  S
C1393      C1394   1.423       .  A
C1393      C1398   1.426       .  A
C1394      C1395   1.407       .  A
C1394     Br1406   1.922       .  S
C1395      C1396   1.403       .  A
C1395     Br1410   1.937       .  S
C1396      C1399   1.490       .  S
C1396      C1397   1.406       .  A
C1397      C1398   1.415       .  A
C1397     Br1405   1.929       .  S
C1398     Br1409   1.935       .  S
C1399      C1400   1.409       .  A
C1399      C1404   1.407       .  A
C1400      C1401   1.409       .  A
C1400     Br1411   1.929       .  S
C1401      C1402   1.413       .  A
C1401     Br1407   1.930       .  S
C1402      C1403   1.418       .  A
C1403      C1404   1.410       .  A
C1403     Br1412   1.933       .  S
C1404     Br1408   1.930       .  S
C1413      C1414   1.410       .  A
C1413      C1418   1.411       .  A
C1414      C1415   1.409       .  A
C1414     Br1426   1.929       .  S
C1415      C1416   1.410       .  A
C1415     Br1430   1.928       .  S
C1416      C1419   1.489       .  S
C1416      C1417   1.409       .  A
C1417      C1418   1.409       .  A
C1417     Br1425   1.930       .  S
C1418     Br1429   1.925       .  S
C1419      C1420   1.406       .  A
C1419      C1424   1.406       .  A
C1420      C1421   1.411       .  A
C1420     Br1431   1.932       .  S
C1421      C1422   1.418       .  A
C1421     Br1427   1.919       .  S
C1422      C1423   1.418       .  A
C1423      C1424   1.410       .  A
C1423     Br1432   1.931       .  S
C1424     Br1428   1.930       .  S
C1433      C1434   1.411       .  A
C1433      C1438   1.410       .  A
C1434      C1435   1.412       .  A
C1434     Br1446   1.931       .  S
C1435      C1436   1.413       .  A
C1435     Br1450   1.929       .  S
C1436      C1439   1.494       .  S
C1436      C1437   1.411       .  A
C1437      C1438   1.407       .  A
C1437     Br1445   1.929       .  S
C1438     Br1449   1.932       .  S
C1439      C1440   1.409       .  A
C1439      C1444   1.406       .  A
C1440      C1441   1.414       .  A
C1440     Br1451   1.933       .  S
C1441      C1442   1.424       .  A
C1441     Br1447   1.933       .  S
C1442      C1443   1.427       .  A
C1443      C1444   1.409       .  A
C1443     Br1452   1.938       .  S
C1444     Br1448   1.935       .  S
C1453      C1454   1.413       .  A
C1453      C1458   1.411       .  A
C1454      C1455   1.409       .  A
C1454     Br1466   1.931   1_565  S
C1455      C1456   1.408       .  A
C1455     Br1470   1.929       .  S
C1456      C1459   1.482       .  S
C1456      C1457   1.408       .  A
C1457      C1458   1.405       .  A
C1457     Br1465   1.931       .  S
C1458     Br1469   1.932       .  S
C1459      C1460   1.403       .  A
C1459      C1464   1.409       .  A
C1460      C1461   1.404       .  A
C1460     Br1471   1.932       .  S
C1461      C1462   1.423       .  A
C1461     Br1467   1.936       .  S
C1462      C1463   1.414       .  A
C1463      C1464   1.410       .  A
C1463     Br1472   1.925       .  S
C1464     Br1468   1.930       .  S
C1473      C1474   1.413       .  A
C1473      C1478   1.415       .  A
C1474      C1475   1.412       .  A
C1474     Br1486   1.929       .  S
C1475      C1476   1.410       .  A
C1475     Br1490   1.928       .  S
C1476      C1479   1.490       .  S
C1476      C1477   1.408       .  A
C1477      C1478   1.408       .  A
C1477     Br1485   1.931       .  S
C1478     Br1489   1.932       .  S
C1479      C1480   1.406       .  A
C1479      C1484   1.403       .  A
C1480      C1481   1.415       .  A
C1480     Br1491   1.932       .  S
C1481      C1482   1.423       .  A
C1481     Br1487   1.922       .  S
C1482      C1483   1.421       .  A
C1483      C1484   1.407       .  A
C1483     Br1492   1.920       .  S
C1484     Br1488   1.934       .  S
C1493      C1494   1.416       .  A
C1493      C1498   1.420       .  A
C1494      C1495   1.404       .  A
C1494     Br1506   1.916       .  S
C1495      C1496   1.403       .  A
C1495     Br1510   1.932       .  S
C1496      C1499   1.489       .  S
C1496      C1497   1.410       .  A
C1497      C1498   1.415       .  A
C1497     Br1505   1.932       .  S
C1498     Br1509   1.923       .  S
C1499      C1500   1.410       .  A
C1499      C1504   1.412       .  A
C1500      C1501   1.408       .  A
C1500     Br1511   1.931       .  S
C1501      C1502   1.410       .  A
C1501     Br1507   1.929       .  S
C1502      C1503   1.408       .  A
C1503      C1504   1.409       .  A
C1503     Br1512   1.929       .  S
C1504     Br1508   1.929       .  S
C1513      C1514   1.416       .  A
C1513      C1518   1.412       .  A
C1514      C1515   1.412       .  A
C1514     Br1526   1.932       .  S
C1515      C1516   1.410       .  A
C1515     Br1530   1.930       .  S
C1516      C1519   1.494       .  S
C1516      C1517   1.410       .  A
C1517      C1518   1.411       .  A
C1517     Br1525   1.929       .  S
C1518     Br1529   1.928       .  S
C1519      C1520   1.408       .  A
C1519      C1524   1.404       .  A
C1520      C1521   1.416       .  A
C1520     Br1531   1.930       .  S
C1521      C1522   1.420       .  A
C1521     Br1527   1.924       .  S
C1522      C1523   1.422       .  A
C1523      C1524   1.409       .  A
C1523     Br1532   1.921       .  S
C1524     Br1528   1.934       .  S
C1533      C1534   1.411       .  A
C1533      C1538   1.416       .  A
C1534      C1535   1.410       .  A
C1534     Br1546   1.923       .  S
C1535      C1536   1.409       .  A
C1535     Br1550   1.928       .  S
C1536      C1539   1.484       .  S
C1536      C1537   1.404       .  A
C1537      C1538   1.404       .  A
C1537     Br1545   1.932       .  S
C1538     Br1549   1.925       .  S
C1539      C1540   1.411       .  A
C1539      C1544   1.408       .  A
C1540      C1541   1.409       .  A
C1540     Br1551   1.930       .  S
C1541      C1542   1.410       .  A
C1541     Br1547   1.929       .  S
C1542      C1543   1.412       .  A
C1543      C1544   1.406       .  A
C1543     Br1552   1.932       .  S
C1544     Br1548   1.930       .  S
C1553      C1554   1.411       .  A
C1553      C1558   1.408       .  A
C1554      C1555   1.411       .  A
C1554     Br1566   1.928       .  S
C1555      C1556   1.412       .  A
C1555     Br1570   1.930       .  S
C1556      C1559   1.494       .  S
C1556      C1557   1.412       .  A
C1557      C1558   1.409       .  A
C1557     Br1565   1.929       .  S
C1558     Br1569   1.929   1_554  S
C1559      C1560   1.407       .  A
C1559      C1564   1.409       .  A
C1560      C1561   1.410       .  A
C1560     Br1571   1.933       .  S
C1561      C1562   1.419       .  A
C1561     Br1567   1.928       .  S
C1562      C1563   1.417       .  A
C1563      C1564   1.413       .  A
C1563     Br1572   1.923       .  S
C1564     Br1568   1.931       .  S
C1573      C1574   1.418       .  A
C1573      C1578   1.422       .  A
C1574      C1575   1.414       .  A
C1574     Br1586   1.931       .  S
C1575      C1576   1.409       .  A
C1575     Br1590   1.930       .  S
C1576      C1579   1.495       .  S
C1576      C1577   1.407       .  A
C1577      C1578   1.411       .  A
C1577     Br1585   1.933       .  S
C1578     Br1589   1.933       .  S
C1579      C1580   1.406       .  A
C1579      C1584   1.406       .  A
C1580      C1581   1.414       .  A
C1580     Br1591   1.934       .  S
C1581      C1582   1.425       .  A
C1581     Br1587   1.923       .  S
C1582      C1583   1.422       .  A
C1583      C1584   1.412       .  A
C1583     Br1592   1.928       .  S
C1584     Br1588   1.932       .  S
C1593      C1594   1.406       .  A
C1593      C1598   1.411       .  A
C1594      C1595   1.407       .  A
C1594     Br1606   1.929       .  S
C1595      C1596   1.411       .  A
C1595     Br1610   1.928       .  S
C1596      C1599   1.486       .  S
C1596      C1597   1.410       .  A
C1597      C1598   1.407       .  A
C1597     Br1605   1.930       .  S
C1598     Br1609   1.934       .  S
C1599      C1600   1.406       .  A
C1599      C1604   1.407       .  A
C1600      C1601   1.408       .  A
C1600     Br1611   1.933       .  S
C1601      C1602   1.424       .  A
C1601     Br1607   1.937       .  S
C1602      C1603   1.419       .  A
C1603      C1604   1.410       .  A
C1603     Br1612   1.927   1_455  S
C1604     Br1608   1.933       .  S
C1613      C1614   1.417       .  A
C1613      C1618   1.415       .  A
C1614      C1615   1.408       .  A
C1614     Br1626   1.929       .  S
C1615      C1616   1.407       .  A
C1615     Br1630   1.932       .  S
C1616      C1619   1.491       .  S
C1616      C1617   1.409       .  A
C1617      C1618   1.412       .  A
C1617     Br1625   1.931       .  S
C1618     Br1629   1.922       .  S
C1619      C1620   1.409       .  A
C1619      C1624   1.412       .  A
C1620      C1621   1.407       .  A
C1620     Br1631   1.931       .  S
C1621      C1622   1.411       .  A
C1621     Br1627   1.927       .  S
C1622      C1623   1.411       .  A
C1623      C1624   1.413       .  A
C1623     Br1632   1.928   1_655  S
C1624     Br1628   1.928       .  S
C1633      C1634   1.412       .  A
C1633      C1638   1.416       .  A
C1634      C1635   1.411       .  A
C1634     Br1646   1.929       .  S
C1635      C1636   1.410       .  A
C1635     Br1650   1.928       .  S
C1636      C1639   1.490       .  S
C1636      C1637   1.408       .  A
C1637      C1638   1.409       .  A
C1637     Br1645   1.931       .  S
C1638     Br1649   1.933       .  S
C1639      C1640   1.408       .  A
C1639      C1644   1.407       .  A
C1640      C1641   1.410       .  A
C1640     Br1651   1.931       .  S
C1641      C1642   1.415       .  A
C1641     Br1647   1.926       .  S
C1642      C1643   1.421       .  A
C1643      C1644   1.410       .  A
C1643     Br1652   1.935       .  S
C1644     Br1648   1.930       .  S
C1653      C1654   1.423       .  A
C1653      C1658   1.427       .  A
C1654      C1655   1.412       .  A
C1654     Br1666   1.924       .  S
C1655      C1656   1.405       .  A
C1655     Br1670   1.932       .  S
C1656      C1659   1.492       .  S
C1656      C1657   1.404       .  A
C1657      C1658   1.411       .  A
C1657     Br1665   1.937       .  S
C1658     Br1669   1.923       .  S
C1659      C1660   1.408       .  A
C1659      C1664   1.409       .  A
C1660      C1661   1.409       .  A
C1660     Br1671   1.933       .  S
C1661      C1662   1.418       .  A
C1661     Br1667   1.928       .  S
C1662      C1663   1.416       .  A
C1663      C1664   1.412       .  A
C1663     Br1672   1.925       .  S
C1664     Br1668   1.930       .  S
C1673      C1674   1.409       .  A
C1673      C1678   1.409       .  A
C1674      C1675   1.404       .  A
C1674     Br1686   1.927       .  S
C1675      C1676   1.408       .  A
C1675     Br1690   1.930       .  S
C1676      C1679   1.487       .  S
C1676      C1677   1.413       .  A
C1677      C1678   1.411       .  A
C1677     Br1685   1.929       .  S
C1678     Br1689   1.928       .  S
C1679      C1680   1.406       .  A
C1679      C1684   1.406       .  A
C1680      C1681   1.408       .  A
C1680     Br1691   1.932       .  S
C1681      C1682   1.421       .  A
C1681     Br1687   1.935       .  S
C1682      C1683   1.420       .  A
C1683      C1684   1.410       .  A
C1683     Br1692   1.925       .  S
C1684     Br1688   1.933       .  S
C1693      C1694   1.418       .  A
C1693      C1698   1.417       .  A
C1694      C1695   1.407       .  A
C1694     Br1706   1.933       .  S
C1695      C1696   1.408       .  A
C1695     Br1710   1.934       .  S
C1696      C1699   1.488       .  S
C1696      C1697   1.409       .  A
C1697      C1698   1.411       .  A
C1697     Br1705   1.933       .  S
C1698     Br1709   1.925       .  S
C1699      C1700   1.411       .  A
C1699      C1704   1.411       .  A
C1700      C1701   1.405       .  A
C1700     Br1711   1.929       .  S
C1701      C1702   1.407       .  A
C1701     Br1707   1.930       .  S
C1702      C1703   1.415       .  A
C1703      C1704   1.407       .  A
C1703     Br1712   1.936       .  S
C1704     Br1708   1.931       .  S
C1713      C1714   1.410       .  A
C1713      C1718   1.414       .  A
C1714      C1715   1.412       .  A
C1714     Br1726   1.928       .  S
C1715      C1716   1.411       .  A
C1715     Br1730   1.928       .  S
C1716      C1719   1.488       .  S
C1716      C1717   1.408       .  A
C1717      C1718   1.405       .  A
C1717     Br1725   1.932       .  S
C1718     Br1729   1.933       .  S
C1719      C1720   1.403       .  A
C1719      C1724   1.406       .  A
C1720      C1721   1.406       .  A
C1720     Br1731   1.933       .  S
C1721      C1722   1.424       .  A
C1721     Br1727   1.935       .  S
C1722      C1723   1.429       .  A
C1723      C1724   1.414       .  A
C1723     Br1732   1.930       .  S
C1724     Br1728   1.934       .  S
C1733      C1734   1.415       .  A
C1733      C1738   1.413       .  A
C1734      C1735   1.405       .  A
C1734     Br1746   1.933       .  S
C1735      C1736   1.406       .  A
C1735     Br1750   1.930       .  S
C1736      C1739   1.483       .  S
C1736      C1737   1.409       .  A
C1737      C1738   1.409       .  A
C1737     Br1745   1.930       .  S
C1738     Br1749   1.931       .  S
C1739      C1740   1.403       .  A
C1739      C1744   1.406       .  A
C1740      C1741   1.404       .  A
C1740     Br1751   1.935       .  S
C1741      C1742   1.420       .  A
C1741     Br1747   1.927       .  S
C1742      C1743   1.420       .  A
C1743      C1744   1.412       .  A
C1743     Br1752   1.922       .  S
C1744     Br1748   1.931       .  S
C1753      C1754   1.424       .  A
C1753      C1758   1.430       .  A
C1754      C1755   1.412       .  A
C1754     Br1766   1.923       .  S
C1755      C1756   1.404       .  A
C1755     Br1770   1.935       .  S
C1756      C1759   1.487       .  S
C1756      C1757   1.402       .  A
C1757      C1758   1.410       .  A
C1757     Br1765   1.934       .  S
C1758     Br1769   1.935       .  S
C1759      C1760   1.409       .  A
C1759      C1764   1.407       .  A
C1760      C1761   1.411       .  A
C1760     Br1771   1.929       .  S
C1761      C1762   1.414       .  A
C1761     Br1767   1.929       .  S
C1762      C1763   1.415       .  A
C1763      C1764   1.407       .  A
C1763     Br1772   1.931       .  S
C1764     Br1768   1.931       .  S
C1773      C1774   1.416       .  A
C1773      C1778   1.416       .  A
C1774      C1775   1.404       .  A
C1774     Br1786   1.922       .  S
C1775      C1776   1.404       .  A
C1775     Br1790   1.933       .  S
C1776      C1779   1.483       .  S
C1776      C1777   1.407       .  A
C1777      C1778   1.410       .  A
C1777     Br1785   1.932       .  S
C1778     Br1789   1.919       .  S
C1779      C1780   1.403       .  A
C1779      C1784   1.409       .  A
C1780      C1781   1.403       .  A
C1780     Br1791   1.933       .  S
C1781      C1782   1.423       .  A
C1781     Br1787   1.937       .  S
C1782      C1783   1.419       .  A
C1783      C1784   1.411       .  A
C1783     Br1792   1.929       .  S
C1784     Br1788   1.932       .  S
C1793      C1794   1.424       .  A
C1793      C1798   1.426       .  A
C1794      C1795   1.410       .  A
C1794     Br1806   1.930       .  S
C1795      C1796   1.403       .  A
C1795     Br1810   1.933       .  S
C1796      C1799   1.488       .  S
C1796      C1797   1.404       .  A
C1797      C1798   1.412       .  A
C1797     Br1805   1.936       .  S
C1798     Br1809   1.924       .  S
C1799      C1800   1.410       .  A
C1799      C1804   1.409       .  A
C1800      C1801   1.409       .  A
C1800     Br1811   1.928       .  S
C1801      C1802   1.410       .  A
C1801     Br1807   1.930       .  S
C1802      C1803   1.411       .  A
C1803      C1804   1.406       .  A
C1803     Br1812   1.930       .  S
C1804     Br1808   1.931       .  S
C1813      C1814   1.412       .  A
C1813      C1818   1.411       .  A
C1814      C1815   1.409       .  A
C1814     Br1826   1.930       .  S
C1815      C1816   1.412       .  A
C1815     Br1830   1.931       .  S
C1816      C1819   1.495       .  S
C1816      C1817   1.412       .  A
C1817      C1818   1.409       .  A
C1817     Br1825   1.929       .  S
C1818     Br1829   1.932       .  S
C1819      C1820   1.409       .  A
C1819      C1824   1.411       .  A
C1820      C1821   1.410       .  A
C1820     Br1831   1.932       .  S
C1821      C1822   1.418       .  A
C1821     Br1827   1.934       .  S
C1822      C1823   1.418       .  A
C1823      C1824   1.413       .  A
C1823     Br1832   1.922   1_545  S
C1824     Br1828   1.934       .  S
C1833      C1834   1.411       .  A
C1833      C1838   1.411       .  A
C1834      C1835   1.408       .  A
C1834     Br1846   1.928   1_545  S
C1835      C1836   1.410       .  A
C1835     Br1850   1.930       .  S
C1836      C1839   1.490       .  S
C1836      C1837   1.410       .  A
C1837      C1838   1.410       .  A
C1837     Br1845   1.929       .  S
C1838     Br1849   1.929       .  S
C1839      C1840   1.405       .  A
C1839      C1844   1.407       .  A
C1840      C1841   1.406       .  A
C1840     Br1851   1.934       .  S
C1841      C1842   1.426       .  A
C1841     Br1847   1.936       .  S
C1842      C1843   1.424       .  A
C1843      C1844   1.414       .  A
C1843     Br1852   1.932       .  S
C1844     Br1848   1.930       .  S
C1853      C1854   1.422       .  A
C1853      C1858   1.422       .  A
C1854      C1855   1.409       .  A
C1854     Br1866   1.918       .  S
C1855      C1856   1.404       .  A
C1855     Br1870   1.936       .  S
C1856      C1859   1.486       .  S
C1856      C1857   1.403       .  A
C1857      C1858   1.410       .  A
C1857     Br1865   1.932       .  S
C1858     Br1869   1.926       .  S
C1859      C1860   1.405       .  A
C1859      C1864   1.405       .  A
C1860      C1861   1.408       .  A
C1860     Br1871   1.934       .  S
C1861      C1862   1.420       .  A
C1861     Br1867   1.927       .  S
C1862      C1863   1.417       .  A
C1863      C1864   1.410       .  A
C1863     Br1872   1.921   1_455  S
C1864     Br1868   1.931       .  S
C1873      C1874   1.416       .  A
C1873      C1878   1.417       .  A
C1874      C1875   1.411       .  A
C1874     Br1886   1.923       .  S
C1875      C1876   1.408       .  A
C1875     Br1890   1.931       .  S
C1876      C1879   1.487       .  S
C1876      C1877   1.406       .  A
C1877      C1878   1.405       .  A
C1877     Br1885   1.934       .  S
C1878     Br1889   1.925       .  S
C1879      C1880   1.410       .  A
C1879      C1884   1.410       .  A
C1880      C1881   1.408       .  A
C1880     Br1891   1.930       .  S
C1881      C1882   1.411       .  A
C1881     Br1887   1.931       .  S
C1882      C1883   1.413       .  A
C1883      C1884   1.407       .  A
C1883     Br1892   1.933       .  S
C1884     Br1888   1.932       .  S
C1893      C1894   1.418       .  A
C1893      C1898   1.416       .  A
C1894      C1895   1.408       .  A
C1894     Br1906   1.923       .  S
C1895      C1896   1.405       .  A
C1895     Br1910   1.934       .  S
C1896      C1899   1.491       .  S
C1896      C1897   1.408       .  A
C1897      C1898   1.414       .  A
C1897     Br1905   1.929       .  S
C1898     Br1909   1.923       .  S
C1899      C1900   1.410       .  A
C1899      C1904   1.409       .  A
C1900      C1901   1.411       .  A
C1900     Br1911   1.928       .  S
C1901      C1902   1.411       .  A
C1901     Br1907   1.927   1_655  S
C1902      C1903   1.415       .  A
C1903      C1904   1.409       .  A
C1903     Br1912   1.933       .  S
C1904     Br1908   1.931       .  S
C1913      C1914   1.413       .  A
C1913      C1918   1.420       .  A
C1914      C1915   1.406       .  A
C1914     Br1926   1.924       .  S
C1915      C1916   1.406       .  A
C1915     Br1930   1.933       .  S
C1916      C1919   1.484       .  S
C1916      C1917   1.407       .  A
C1917      C1918   1.409       .  A
C1917     Br1925   1.931       .  S
C1918     Br1929   1.935       .  S
C1919      C1920   1.408       .  A
C1919      C1924   1.409       .  A
C1920      C1921   1.405       .  A
C1920     Br1931   1.932       .  S
C1921      C1922   1.411       .  A
C1921     Br1927   1.927       .  S
C1922      C1923   1.412       .  A
C1923      C1924   1.409       .  A
C1923     Br1932   1.929   1_565  S
C1924     Br1928   1.929       .  S
C1933      C1934   1.420       .  A
C1933      C1938   1.414       .  A
C1934      C1935   1.405       .  A
C1934     Br1946   1.934       .  S
C1935      C1936   1.404       .  A
C1935     Br1950   1.931       .  S
C1936      C1939   1.485       .  S
C1936      C1937   1.409       .  A
C1937      C1938   1.411       .  A
C1937     Br1945   1.930       .  S
C1938     Br1949   1.923       .  S
C1939      C1940   1.409       .  A
C1939      C1944   1.410       .  A
C1940      C1941   1.409       .  A
C1940     Br1951   1.929       .  S
C1941      C1942   1.410       .  A
C1941     Br1947   1.930       .  S
C1942      C1943   1.407       .  A
C1943      C1944   1.407       .  A
C1943     Br1952   1.929       .  S
C1944     Br1948   1.930       .  S
C1953      C1954   1.414       .  A
C1953      C1958   1.410       .  A
C1954      C1955   1.407       .  A
C1954     Br1966   1.932       .  S
C1955      C1956   1.408       .  A
C1955     Br1970   1.930       .  S
C1956      C1959   1.487       .  S
C1956      C1957   1.410       .  A
C1957      C1958   1.409       .  A
C1957     Br1965   1.928       .  S
C1958     Br1969   1.928   1_556  S
C1959      C1960   1.405       .  A
C1959      C1964   1.403       .  A
C1960      C1961   1.414       .  A
C1960     Br1971   1.930       .  S
C1961      C1962   1.427       .  A
C1961     Br1967   1.936       .  S
C1962      C1963   1.423       .  A
C1963      C1964   1.407       .  A
C1963     Br1972   1.922       .  S
C1964     Br1968   1.938       .  S
C1973      C1974   1.432       .  A
C1973      C1978   1.429       .  A
C1974      C1975   1.412       .  A
C1974     Br1986   1.935       .  S
C1975      C1976   1.403       .  A
C1975     Br1990   1.933       .  S
C1976      C1979   1.486       .  S
C1976      C1977   1.400       .  A
C1977      C1978   1.407       .  A
C1977     Br1985   1.937       .  S
C1978     Br1989   1.923       .  S
C1979      C1980   1.408       .  A
C1979      C1984   1.406       .  A
C1980      C1981   1.406       .  A
C1980     Br1991   1.932       .  S
C1981      C1982   1.415       .  A
C1981     Br1987   1.934       .  S
C1982      C1983   1.417       .  A
C1983      C1984   1.410       .  A
C1983     Br1992   1.929       .  S
C1984     Br1988   1.930       .  S
C1993      C1994   1.423       .  A
C1993      C1998   1.430       .  A
C1994      C1995   1.412       .  A
C1994     Br2006   1.928       .  S
C1995      C1996   1.406       .  A
C1995     Br2010   1.930       .  S
C1996      C1999   1.490       .  S
C1996      C1997   1.402       .  A
C1997      C1998   1.409       .  A
C1997     Br2005   1.936       .  S
C1998     Br2009   1.927       .  S
C1999      C2000   1.409       .  A
C1999      C2004   1.407       .  A
C2000      C2001   1.410       .  A
C2000     Br2011   1.932       .  S
C2001      C2002   1.418       .  A
C2001     Br2007   1.933       .  S
C2002      C2003   1.420       .  A
C2003      C2004   1.409       .  A
C2003     Br2012   1.933       .  S
C2004     Br2008   1.932       .  S
C2013      C2014   1.417       .  A
C2013      C2018   1.415       .  A
C2014      C2015   1.409       .  A
C2014     Br2026   1.922       .  S
C2015      C2016   1.406       .  A
C2015     Br2030   1.932       .  S
C2016      C2019   1.490       .  S
C2016      C2017   1.407       .  A
C2017      C2018   1.411       .  A
C2017     Br2025   1.932       .  S
C2018     Br2029   1.918       .  S
C2019      C2020   1.405       .  A
C2019      C2024   1.408       .  A
C2020      C2021   1.408       .  A
C2020     Br2031   1.936       .  S
C2021      C2022   1.424       .  A
C2021     Br2027   1.933       .  S
C2022      C2023   1.421       .  A
C2023      C2024   1.412       .  A
C2023     Br2032   1.932       .  S
C2024     Br2028   1.930       .  S
C2033      C2034   1.413       .  A
C2033      C2038   1.412       .  A
C2034      C2035   1.412       .  A
C2034     Br2046   1.929       .  S
C2035      C2036   1.410       .  A
C2035     Br2050   1.928       .  S
C2036      C2039   1.487       .  S
C2036      C2037   1.408       .  A
C2037      C2038   1.406       .  A
C2037     Br2045   1.931       .  S
C2038     Br2049   1.933       .  S
C2039      C2040   1.409       .  A
C2039      C2044   1.405       .  A
C2040      C2041   1.413       .  A
C2040     Br2051   1.929       .  S
C2041      C2042   1.416       .  A
C2041     Br2047   1.925       .  S
C2042      C2043   1.421       .  A
C2043      C2044   1.405       .  A
C2043     Br2052   1.938       .  S
C2044     Br2048   1.933       .  S
C2053      C2054   1.433       .  A
C2053      C2058   1.433       .  A
C2054      C2055   1.408       .  A
C2054     Br2066   1.940       .  S
C2055      C2056   1.401       .  A
C2055     Br2070   1.937       .  S
C2056      C2059   1.481       .  S
C2056      C2057   1.401       .  A
C2057      C2058   1.410       .  A
C2057     Br2065   1.935       .  S
C2058     Br2069   1.939       .  S
C2059      C2060   1.406       .  A
C2059      C2064   1.404       .  A
C2060      C2061   1.409       .  A
C2060     Br2071   1.929       .  S
C2061      C2062   1.417       .  A
C2061     Br2067   1.922       .  S
C2062      C2063   1.424       .  A
C2063      C2064   1.403       .  A
C2063     Br2072   1.936       .  S
C2064     Br2068   1.932       .  S
C2073      C2074   1.421       .  A
C2073      C2078   1.422       .  A
C2074      C2075   1.409       .  A
C2074     Br2086   1.927       .  S
C2075      C2076   1.404       .  A
C2075     Br2090   1.933       .  S
C2076      C2079   1.487       .  S
C2076      C2077   1.405       .  A
C2077      C2078   1.411       .  A
C2077     Br2085   1.935       .  S
C2078     Br2089   1.921       .  S
C2079      C2080   1.410       .  A
C2079      C2084   1.409       .  A
C2080      C2081   1.409       .  A
C2080     Br2091   1.928       .  S
C2081      C2082   1.411       .  A
C2081     Br2087   1.930       .  S
C2082      C2083   1.413       .  A
C2083      C2084   1.407       .  A
C2083     Br2092   1.933       .  S
C2084     Br2088   1.931       .  S
C2093      C2094   1.430       .  A
C2093      C2098   1.427       .  A
C2094      C2095   1.416       .  A
C2094     Br2106   1.929       .  S
C2095      C2096   1.406       .  A
C2095     Br2110   1.933       .  S
C2096      C2099   1.490       .  S
C2096      C2097   1.402       .  A
C2097      C2098   1.404       .  A
C2097     Br2105   1.935       .  S
C2098     Br2109   1.935       .  S
C2099      C2100   1.410       .  A
C2099      C2104   1.407       .  A
C2100      C2101   1.412       .  A
C2100     Br2111   1.930       .  S
C2101      C2102   1.417       .  A
C2101     Br2107   1.931       .  S
C2102      C2103   1.417       .  A
C2103      C2104   1.406       .  A
C2103     Br2112   1.935       .  S
C2104     Br2108   1.932       .  S
C2113      C2114   1.414       .  A
C2113      C2118   1.415       .  A
C2114      C2115   1.409       .  A
C2114     Br2126   1.930       .  S
C2115      C2116   1.408       .  A
C2115     Br2130   1.930       .  S
C2116      C2119   1.484       .  S
C2116      C2117   1.407       .  A
C2117      C2118   1.407       .  A
C2117     Br2125   1.932       .  S
C2118     Br2129   1.933       .  S
C2119      C2120   1.404       .  A
C2119      C2124   1.406       .  A
C2120      C2121   1.407       .  A
C2120     Br2131   1.932       .  S
C2121      C2122   1.421       .  A
C2121     Br2127   1.929       .  S
C2122      C2123   1.417       .  A
C2123      C2124   1.408       .  A
C2123     Br2132   1.924       .  S
C2124     Br2128   1.933       .  S
C2133      C2134   1.428       .  A
C2133      C2138   1.428       .  A
C2134      C2135   1.411       .  A
C2134     Br2146   1.934       .  S
C2135      C2136   1.403       .  A
C2135     Br2150   1.932       .  S
C2136      C2139   1.493       .  S
C2136      C2137   1.405       .  A
C2137      C2138   1.414       .  A
C2137     Br2145   1.936       .  S
C2138     Br2149   1.927       .  S
C2139      C2140   1.411       .  A
C2139      C2144   1.407       .  A
C2140      C2141   1.414       .  A
C2140     Br2151   1.928       .  S
C2141      C2142   1.415       .  A
C2141     Br2147   1.929       .  S
C2142      C2143   1.419       .  A
C2143      C2144   1.407       .  A
C2143     Br2152   1.934       .  S
C2144     Br2148   1.933       .  S
C2153      C2154   1.422       .  A
C2153      C2158   1.418       .  A
C2154      C2155   1.401       .  A
C2154     Br2166   1.939       .  S
C2155      C2156   1.405       .  A
C2155     Br2170   1.934       .  S
C2156      C2159   1.480       .  S
C2156      C2157   1.408       .  A
C2157      C2158   1.409       .  A
C2157     Br2165   1.933       .  S
C2158     Br2169   1.927       .  S
C2159      C2160   1.407       .  A
C2159      C2164   1.411       .  A
C2160      C2161   1.402       .  A
C2160     Br2171   1.933       .  S
C2161      C2162   1.415       .  A
C2161     Br2167   1.936       .  S
C2162      C2163   1.411       .  A
C2163      C2164   1.406       .  A
C2163     Br2172   1.931       .  S
C2164     Br2168   1.931       .  S
C2173      C2174   1.418       .  A
C2173      C2178   1.421       .  A
C2174      C2175   1.407       .  A
C2174     Br2186   1.922       .  S
C2175      C2176   1.404       .  A
C2175     Br2190   1.933       .  S
C2176      C2179   1.475       .  S
C2176      C2177   1.404       .  A
C2177      C2178   1.402       .  A
C2177     Br2185   1.934       .  S
C2178     Br2189   1.938       .  S
C2179      C2180   1.410       .  A
C2179      C2184   1.406       .  A
C2180      C2181   1.404       .  A
C2180     Br2191   1.930       .  S
C2181      C2182   1.406       .  A
C2181     Br2187   1.929       .  S
C2182      C2183   1.412       .  A
C2183      C2184   1.402       .  A
C2183     Br2192   1.934       .  S
C2184     Br2188   1.930       .  S
C2193      C2194   1.418       .  A
C2193      C2198   1.419       .  A
C2194      C2195   1.408       .  A
C2194     Br2206   1.922       .  S
C2195      C2196   1.403       .  A
C2195     Br2210   1.933       .  S
C2196      C2199   1.475       .  S
C2196      C2197   1.403       .  A
C2197      C2198   1.402       .  A
C2197     Br2205   1.933       .  S
C2198     Br2209   1.929       .  S
C2199      C2200   1.408       .  A
C2199      C2204   1.405       .  A
C2200      C2201   1.407       .  A
C2200     Br2211   1.929       .  S
C2201      C2202   1.410       .  A
C2201     Br2207   1.930       .  S
C2202      C2203   1.413       .  A
C2203      C2204   1.401       .  A
C2203     Br2212   1.935       .  S
C2204     Br2208   1.932       .  S
C2213      C2214   1.409       .  A
C2213      C2218   1.410       .  A
C2214      C2215   1.409       .  A
C2214     Br2226   1.929       .  S
C2215      C2216   1.412       .  A
C2215     Br2230   1.930       .  S
C2216      C2219   1.488       .  S
C2216      C2217   1.411       .  A
C2217      C2218   1.406       .  A
C2217     Br2225   1.931       .  S
C2218     Br2229   1.932       .  S
C2219      C2220   1.410       .  A
C2219      C2224   1.406       .  A
C2220      C2221   1.411       .  A
C2220     Br2231   1.932       .  S
C2221      C2222   1.415       .  A
C2221     Br2227   1.925       .  S
C2222      C2223   1.417       .  A
C2223      C2224   1.405       .  A
C2223     Br2232   1.924       .  S
C2224     Br2228   1.933       .  S
C2233      C2234   1.417       .  A
C2233      C2238   1.420       .  A
C2234      C2235   1.408       .  A
C2234     Br2246   1.932       .  S
C2235      C2236   1.408       .  A
C2235     Br2250   1.932       .  S
C2236      C2239   1.484       .  S
C2236      C2237   1.407       .  A
C2237      C2238   1.405       .  A
C2237     Br2245   1.934       .  S
C2238     Br2249   1.936       .  S
C2239      C2240   1.403       .  A
C2239      C2244   1.408       .  A
C2240      C2241   1.401       .  A
C2240     Br2251   1.936       .  S
C2241      C2242   1.421       .  A
C2241     Br2247   1.928       .  S
C2242      C2243   1.421       .  A
C2243      C2244   1.413       .  A
C2243     Br2252   1.925       .  S
C2244     Br2248   1.931       .  S
C2253      C2254   1.423       .  A
C2253      C2258   1.418       .  A
C2254      C2255   1.410       .  A
C2254     Br2266   1.935       .  S
C2255      C2256   1.405       .  A
C2255     Br2270   1.930       .  S
C2256      C2259   1.486       .  S
C2256      C2257   1.406       .  A
C2257      C2258   1.408       .  A
C2257     Br2265   1.934       .  S
C2258     Br2269   1.924       .  S
C2259      C2260   1.411       .  A
C2259      C2264   1.406       .  A
C2260      C2261   1.411       .  A
C2260     Br2271   1.928       .  S
C2261      C2262   1.411       .  A
C2261     Br2267   1.929       .  S
C2262      C2263   1.415       .  A
C2263      C2264   1.405       .  A
C2263     Br2272   1.932       .  S
C2264     Br2268   1.932       .  S
C2273      C2274   1.414       .  A
C2273      C2278   1.417       .  A
C2274      C2275   1.412       .  A
C2274     Br2286   1.924       .  S
C2275      C2276   1.410       .  A
C2275     Br2290   1.931       .  S
C2276      C2279   1.492       .  S
C2276      C2277   1.407       .  A
C2277      C2278   1.410       .  A
C2277     Br2285   1.932       .  S
C2278     Br2289   1.926       .  S
C2279      C2280   1.410       .  A
C2279      C2284   1.412       .  A
C2280      C2281   1.407       .  A
C2280     Br2291   1.930       .  S
C2281      C2282   1.410       .  A
C2281     Br2287   1.932       .  S
C2282      C2283   1.410       .  A
C2283      C2284   1.411       .  A
C2283     Br2292   1.929       .  S
C2284     Br2288   1.928       .  S
C2293      C2294   1.442       .  A
C2293      C2298   1.433       .  A
C2294      C2295   1.408       .  A
C2294     Br2306   1.940       .  S
C2295      C2296   1.396       .  A
C2295     Br2310   1.938       .  S
C2296      C2299   1.482       .  S
C2296      C2297   1.401       .  A
C2297      C2298   1.412       .  A
C2297     Br2305   1.938       .  S
C2298     Br2309   1.925       .  S
C2299      C2300   1.406       .  A
C2299      C2304   1.410       .  A
C2300      C2301   1.406       .  A
C2300     Br2311   1.929       .  S
C2301      C2302   1.413       .  A
C2301     Br2307   1.931       .  S
C2302      C2303   1.411       .  A
C2303      C2304   1.406       .  A
C2303     Br2312   1.932       .  S
C2304     Br2308   1.931       .  S
C2313      C2314   1.413       .  A
C2313      C2318   1.411       .  A
C2314      C2315   1.409       .  A
C2314     Br2326   1.931       .  S
C2315      C2316   1.410       .  A
C2315     Br2330   1.929       .  S
C2316      C2319   1.490       .  S
C2316      C2317   1.410       .  A
C2317      C2318   1.409       .  A
C2317     Br2325   1.928       .  S
C2318     Br2329   1.932       .  S
C2319      C2320   1.412       .  A
C2319      C2324   1.410       .  A
C2320      C2321   1.411       .  A
C2320     Br2331   1.929       .  S
C2321      C2322   1.409       .  A
C2321     Br2327   1.928   1_554  S
C2322      C2323   1.410       .  A
C2323      C2324   1.409       .  A
C2323     Br2332   1.930       .  S
C2324     Br2328   1.930       .  S
C2333      C2334   1.434       .  A
C2333      C2338   1.432       .  A
C2334      C2335   1.408       .  A
C2334     Br2346   1.938       .  S
C2335      C2336   1.401       .  A
C2335     Br2350   1.935       .  S
C2336      C2339   1.485       .  S
C2336      C2337   1.402       .  A
C2337      C2338   1.411       .  A
C2337     Br2345   1.939       .  S
C2338     Br2349   1.927       .  S
C2339      C2340   1.413       .  A
C2339      C2344   1.409       .  A
C2340      C2341   1.405       .  A
C2340     Br2351   1.931       .  S
C2341      C2342   1.406       .  A
C2341     Br2347   1.932       .  S
C2342      C2343   1.407       .  A
C2343      C2344   1.407       .  A
C2343     Br2352   1.926       .  S
C2344     Br2348   1.928       .  S
C2353      C2354   1.413       .  A
C2353      C2358   1.412       .  A
C2354      C2355   1.411       .  A
C2354     Br2366   1.931       .  S
C2355      C2356   1.411       .  A
C2355     Br2370   1.929       .  S
C2356      C2359   1.494       .  S
C2356      C2357   1.410       .  A
C2357      C2358   1.411       .  A
C2357     Br2365   1.929       .  S
C2358     Br2369   1.931       .  S
C2359      C2360   1.408       .  A
C2359      C2364   1.406       .  A
C2360      C2361   1.415       .  A
C2360     Br2371   1.930       .  S
C2361      C2362   1.424       .  A
C2361     Br2367   1.934       .  S
C2362      C2363   1.419       .  A
C2363      C2364   1.410       .  A
C2363     Br2372   1.924       .  S
C2364     Br2368   1.933       .  S
C2373      C2374   1.424       .  A
C2373      C2378   1.422       .  A
C2374      C2375   1.412       .  A
C2374     Br2386   1.933       .  S
C2375      C2376   1.406       .  A
C2375     Br2390   1.933       .  S
C2376      C2379   1.493       .  S
C2376      C2377   1.408       .  A
C2377      C2378   1.411       .  A
C2377     Br2385   1.932       .  S
C2378     Br2389   1.934       .  S
C2379      C2380   1.402       .  A
C2379      C2384   1.409       .  A
C2380      C2381   1.404       .  A
C2380     Br2391   1.934       .  S
C2381      C2382   1.423       .  A
C2381     Br2387   1.920       .  S
C2382      C2383   1.427       .  A
C2383      C2384   1.418       .  A
C2383     Br2392   1.932       .  S
C2384     Br2388   1.930       .  S
C2393      C2394   1.415       .  A
C2393      C2398   1.418       .  A
C2394      C2395   1.413       .  A
C2394     Br2406   1.920       .  S
C2395      C2396   1.408       .  A
C2395     Br2410   1.931       .  S
C2396      C2399   1.495       .  S
C2396      C2397   1.408       .  A
C2397      C2398   1.411       .  A
C2397     Br2405   1.930       .  S
C2398     Br2409   1.930       .  S
C2399      C2400   1.411       .  A
C2399      C2404   1.408       .  A
C2400      C2401   1.414       .  A
C2400     Br2411   1.928       .  S
C2401      C2402   1.414       .  A
C2401     Br2407   1.929       .  S
C2402      C2403   1.419       .  A
C2403      C2404   1.410       .  A
C2403     Br2412   1.934       .  S
C2404     Br2408   1.932       .  S
C2413      C2414   1.410       .  A
C2413      C2418   1.411       .  A
C2414      C2415   1.408       .  A
C2414     Br2426   1.931       .  S
C2415      C2416   1.410       .  A
C2415     Br2430   1.930       .  S
C2416      C2419   1.489       .  S
C2416      C2417   1.410       .  A
C2417      C2418   1.410       .  A
C2417     Br2425   1.929       .  S
C2418     Br2429   1.930       .  S
C2419      C2420   1.402       .  A
C2419      C2424   1.406       .  A
C2420      C2421   1.409       .  A
C2420     Br2431   1.936       .  S
C2421      C2422   1.428       .  A
C2421     Br2427   1.923       .  S
C2422      C2423   1.422       .  A
C2423      C2424   1.413       .  A
C2423     Br2432   1.926       .  S
C2424     Br2428   1.932       .  S
C2433      C2434   1.410       .  A
C2433      C2438   1.411       .  A
C2434      C2435   1.410       .  A
C2434     Br2446   1.929   1_565  S
C2435      C2436   1.410       .  A
C2435     Br2450   1.929       .  S
C2436      C2439   1.488       .  S
C2436      C2437   1.410       .  A
C2437      C2438   1.408       .  A
C2437     Br2445   1.930       .  S
C2438     Br2449   1.931       .  S
C2439      C2440   1.406       .  A
C2439      C2444   1.408       .  A
C2440      C2441   1.406       .  A
C2440     Br2451   1.932       .  S
C2441      C2442   1.417       .  A
C2441     Br2447   1.929       .  S
C2442      C2443   1.415       .  A
C2443      C2444   1.412       .  A
C2443     Br2452   1.921       .  S
C2444     Br2448   1.930       .  S
C2453      C2454   1.437       .  A
C2453      C2458   1.431       .  A
C2454      C2455   1.411       .  A
C2454     Br2466   1.936       .  S
C2455      C2456   1.400       .  A
C2455     Br2470   1.937       .  S
C2456      C2459   1.483       .  S
C2456      C2457   1.399       .  A
C2457      C2458   1.407       .  A
C2457     Br2465   1.936       .  S
C2458     Br2469   1.926       .  S
C2459      C2460   1.409       .  A
C2459      C2464   1.411       .  A
C2460      C2461   1.407       .  A
C2460     Br2471   1.928       .  S
C2461      C2462   1.408       .  A
C2461     Br2467   1.929       .  S
C2462      C2463   1.406       .  A
C2463      C2464   1.404       .  A
C2463     Br2472   1.931       .  S
C2464     Br2468   1.931       .  S
C2473      C2474   1.425       .  A
C2473      C2478   1.421       .  A
C2474      C2475   1.409       .  A
C2474     Br2486   1.932       .  S
C2475      C2476   1.405       .  A
C2475     Br2490   1.933       .  S
C2476      C2479   1.486       .  S
C2476      C2477   1.404       .  A
C2477      C2478   1.409       .  A
C2477     Br2485   1.931       .  S
C2478     Br2489   1.924       .  S
C2479      C2480   1.409       .  A
C2479      C2484   1.410       .  A
C2480      C2481   1.405       .  A
C2480     Br2491   1.932       .  S
C2481      C2482   1.409       .  A
C2481     Br2487   1.928   1_554  S
C2482      C2483   1.410       .  A
C2483      C2484   1.411       .  A
C2483     Br2492   1.928       .  S
C2484     Br2488   1.927       .  S
C2493      C2494   1.413       .  A
C2493      C2498   1.410       .  A
C2494      C2495   1.406       .  A
C2494     Br2506   1.933       .  S
C2495      C2496   1.408       .  A
C2495     Br2510   1.931       .  S
C2496      C2499   1.488       .  S
C2496      C2497   1.411       .  A
C2497      C2498   1.411       .  A
C2497     Br2505   1.928       .  S
C2498     Br2509   1.928       .  S
C2499      C2500   1.406       .  A
C2499      C2504   1.407       .  A
C2500      C2501   1.409       .  A
C2500     Br2511   1.931       .  S
C2501      C2502   1.421       .  A
C2501     Br2507   1.935       .  S
C2502      C2503   1.417       .  A
C2503      C2504   1.410       .  A
C2503     Br2512   1.924       .  S
C2504     Br2508   1.932       .  S
C2513      C2514   1.410       .  A
C2513      C2518   1.412       .  A
C2514      C2515   1.409       .  A
C2514     Br2526   1.929       .  S
C2515      C2516   1.410       .  A
C2515     Br2530   1.928       .  S
C2516      C2519   1.486       .  S
C2516      C2517   1.409       .  A
C2517      C2518   1.407       .  A
C2517     Br2525   1.931       .  S
C2518     Br2529   1.932       .  S
C2519      C2520   1.405       .  A
C2519      C2524   1.407       .  A
C2520      C2521   1.407       .  A
C2520     Br2531   1.933       .  S
C2521      C2522   1.417       .  A
C2521     Br2527   1.923       .  S
C2522      C2523   1.415       .  A
C2523      C2524   1.411       .  A
C2523     Br2532   1.921       .  S
C2524     Br2528   1.931       .  S
C2533      C2534   1.423       .  A
C2533      C2538   1.422       .  A
C2534      C2535   1.405       .  A
C2534     Br2546   1.929       .  S
C2535      C2536   1.402       .  A
C2535     Br2550   1.934       .  S
C2536      C2539   1.482       .  S
C2536      C2537   1.404       .  A
C2537      C2538   1.410       .  A
C2537     Br2545   1.933       .  S
C2538     Br2549   1.923       .  S
C2539      C2540   1.409       .  A
C2539      C2544   1.406       .  A
C2540      C2541   1.408       .  A
C2540     Br2551   1.930       .  S
C2541      C2542   1.411       .  A
C2541     Br2547   1.929       .  S
C2542      C2543   1.415       .  A
C2543      C2544   1.406       .  A
C2543     Br2552   1.930       .  S
C2544     Br2548   1.931       .  S
C2553      C2554   1.418       .  A
C2553      C2558   1.415       .  A
C2554      C2555   1.404       .  A
C2554     Br2566   1.936       .  S
C2555      C2556   1.406       .  A
C2555     Br2570   1.932       .  S
C2556      C2559   1.484       .  S
C2556      C2557   1.410       .  A
C2557      C2558   1.409       .  A
C2557     Br2565   1.931       .  S
C2558     Br2569   1.930       .  S
C2559      C2560   1.406       .  A
C2559      C2564   1.407       .  A
C2560      C2561   1.408       .  A
C2560     Br2571   1.932       .  S
C2561      C2562   1.414       .  A
C2561     Br2567   1.915       .  S
C2562      C2563   1.416       .  A
C2563      C2564   1.406       .  A
C2563     Br2572   1.928       .  S
C2564     Br2568   1.932       .  S
C2573      C2574   1.418       .  A
C2573      C2578   1.419       .  A
C2574      C2575   1.408       .  A
C2574     Br2586   1.932       .  S
C2575      C2576   1.409       .  A
C2575     Br2590   1.932       .  S
C2576      C2579   1.484       .  S
C2576      C2577   1.406       .  A
C2577      C2578   1.407       .  A
C2577     Br2585   1.932       .  S
C2578     Br2589   1.934   1_565  S
C2579      C2580   1.402       .  A
C2579      C2584   1.405       .  A
C2580      C2581   1.403       .  A
C2580     Br2591   1.935       .  S
C2581      C2582   1.423       .  A
C2581     Br2587   1.926       .  S
C2582      C2583   1.429       .  A
C2583      C2584   1.412       .  A
C2583     Br2592   1.932       .  S
C2584     Br2588   1.933       .  S
C2593      C2594   1.411       .  A
C2593      C2598   1.409       .  A
C2594      C2595   1.408       .  A
C2594     Br2606   1.931       .  S
C2595      C2596   1.410       .  A
C2595     Br2610   1.930       .  S
C2596      C2599   1.492       .  S
C2596      C2597   1.412       .  A
C2597      C2598   1.413       .  A
C2597     Br2605   1.927       .  S
C2598     Br2609   1.927       .  S
C2599      C2600   1.406       .  A
C2599      C2604   1.406       .  A
C2600      C2601   1.412       .  A
C2600     Br2611   1.931       .  S
C2601      C2602   1.418       .  A
C2601     Br2607   1.919       .  S
C2602      C2603   1.418       .  A
C2603      C2604   1.412       .  A
C2603     Br2612   1.915       .  S
C2604     Br2608   1.933       .  S
C2613      C2614   1.424       .  A
C2613      C2618   1.419       .  A
C2614      C2615   1.413       .  A
C2614     Br2626   1.936       .  S
C2615      C2616   1.408       .  A
C2615     Br2630   1.931       .  S
C2616      C2619   1.500       .  S
C2616      C2617   1.409       .  A
C2617      C2618   1.414       .  A
C2617     Br2625   1.931       .  S
C2618     Br2629   1.928       .  S
C2619      C2620   1.411       .  A
C2619      C2624   1.411       .  A
C2620      C2621   1.414       .  A
C2620     Br2631   1.931       .  S
C2621      C2622   1.417       .  A
C2621     Br2627   1.930       .  S
C2622      C2623   1.415       .  A
C2623      C2624   1.413       .  A
C2623     Br2632   1.931       .  S
C2624     Br2628   1.930       .  S
C2633      C2634   1.417       .  A
C2633      C2638   1.417       .  A
C2634      C2635   1.406       .  A
C2634     Br2646   1.921       .  S
C2635      C2636   1.405       .  A
C2635     Br2650   1.934       .  S
C2636      C2639   1.483       .  S
C2636      C2637   1.404       .  A
C2637      C2638   1.410       .  A
C2637     Br2645   1.932       .  S
C2638     Br2649   1.914       .  S
C2639      C2640   1.405       .  A
C2639      C2644   1.408       .  A
C2640      C2641   1.405       .  A
C2640     Br2651   1.932       .  S
C2641      C2642   1.420       .  A
C2641     Br2647   1.936       .  S
C2642      C2643   1.418       .  A
C2643      C2644   1.410       .  A
C2643     Br2652   1.930       .  S
C2644     Br2648   1.931       .  S
C2653      C2654   1.411       .  A
C2653      C2658   1.412       .  A
C2654      C2655   1.406       .  A
C2654     Br2666   1.931       .  S
C2655      C2656   1.409       .  A
C2655     Br2670   1.931       .  S
C2656      C2659   1.484       .  S
C2656      C2657   1.408       .  A
C2657      C2658   1.408       .  A
C2657     Br2665   1.929       .  S
C2658     Br2669   1.931       .  S
C2659      C2660   1.405       .  A
C2659      C2664   1.409       .  A
C2660      C2661   1.404       .  A
C2660     Br2671   1.931       .  S
C2661      C2662   1.418       .  A
C2661     Br2667   1.935       .  S
C2662      C2663   1.412       .  A
C2663      C2664   1.411       .  A
C2663     Br2672   1.923       .  S
C2664     Br2668   1.929       .  S
C2673      C2674   1.408       .  A
C2673      C2678   1.409       .  A
C2674      C2675   1.406       .  A
C2674     Br2686   1.925       .  S
C2675      C2676   1.411       .  A
C2675     Br2690   1.932       .  S
C2676      C2679   1.488       .  S
C2676      C2677   1.410       .  A
C2677      C2678   1.409       .  A
C2677     Br2685   1.927       .  S
C2678     Br2689   1.927       .  S
C2679      C2680   1.403       .  A
C2679      C2684   1.399       .  A
C2680      C2681   1.414       .  A
C2680     Br2691   1.935       .  S
C2681      C2682   1.435       .  A
C2681     Br2687   1.935       .  S
C2682      C2683   1.433       .  A
C2683      C2684   1.408       .  A
C2683     Br2692   1.925       .  S
C2684     Br2688   1.939       .  S
C2693      C2694   1.419       .  A
C2693      C2698   1.413       .  A
C2694      C2695   1.409       .  A
C2694     Br2706   1.934       .  S
C2695      C2696   1.406       .  A
C2695     Br2710   1.930       .  S
C2696      C2699   1.480       .  S
C2696      C2697   1.405       .  A
C2697      C2698   1.404       .  A
C2697     Br2705   1.934       .  S
C2698     Br2709   1.922       .  S
C2699      C2700   1.407       .  A
C2699      C2704   1.406       .  A
C2700      C2701   1.407       .  A
C2700     Br2711   1.930       .  S
C2701      C2702   1.415       .  A
C2701     Br2707   1.932       .  S
C2702      C2703   1.417       .  A
C2703      C2704   1.405       .  A
C2703     Br2712   1.933       .  S
C2704     Br2708   1.932       .  S
C2713      C2714   1.409       .  A
C2713      C2718   1.412       .  A
C2714      C2715   1.412       .  A
C2714     Br2726   1.927       .  S
C2715      C2716   1.412       .  A
C2715     Br2730   1.929       .  S
C2716      C2719   1.492       .  S
C2716      C2717   1.408       .  A
C2717      C2718   1.409       .  A
C2717     Br2725   1.930       .  S
C2718     Br2729   1.925       .  S
C2719      C2720   1.409       .  A
C2719      C2724   1.408       .  A
C2720      C2721   1.413       .  A
C2720     Br2731   1.930       .  S
C2721      C2722   1.416       .  A
C2721     Br2727   1.924       .  S
C2722      C2723   1.419       .  A
C2723      C2724   1.408       .  A
C2723     Br2732   1.936       .  S
C2724     Br2728   1.932       .  S
C2733      C2734   1.426       .  A
C2733      C2738   1.422       .  A
C2734      C2735   1.411       .  A
C2734     Br2746   1.929       .  S
C2735      C2736   1.404       .  A
C2735     Br2750   1.933       .  S
C2736      C2739   1.483       .  S
C2736      C2737   1.402       .  A
C2737      C2738   1.405       .  A
C2737     Br2745   1.933       .  S
C2738     Br2749   1.929       .  S
C2739      C2740   1.409       .  A
C2739      C2744   1.406       .  A
C2740      C2741   1.410       .  A
C2740     Br2751   1.929       .  S
C2741      C2742   1.413       .  A
C2741     Br2747   1.929       .  S
C2742      C2743   1.416       .  A
C2743      C2744   1.405       .  A
C2743     Br2752   1.933       .  S
C2744     Br2748   1.932       .  S
C2753      C2754   1.411       .  A
C2753      C2758   1.411       .  A
C2754      C2755   1.407       .  A
C2754     Br2766   1.932       .  S
C2755      C2756   1.409       .  A
C2755     Br2770   1.929       .  S
C2756      C2759   1.485       .  S
C2756      C2757   1.409       .  A
C2757      C2758   1.408       .  A
C2757     Br2765   1.928       .  S
C2758     Br2769   1.932       .  S
C2759      C2760   1.409       .  A
C2759      C2764   1.410       .  A
C2760      C2761   1.407       .  A
C2760     Br2771   1.931       .  S
C2761      C2762   1.410       .  A
C2761     Br2767   1.928       .  S
C2762      C2763   1.409       .  A
C2763      C2764   1.409       .  A
C2763     Br2772   1.928       .  S
C2764     Br2768   1.928       .  S
C2773      C2774   1.410       .  A
C2773      C2778   1.410       .  A
C2774      C2775   1.412       .  A
C2774     Br2786   1.928       .  S
C2775      C2776   1.412       .  A
C2775     Br2790   1.928       .  S
C2776      C2779   1.493       .  S
C2776      C2777   1.410       .  A
C2777      C2778   1.410       .  A
C2777     Br2785   1.929       .  S
C2778     Br2789   1.929       .  S
C2779      C2780   1.411       .  A
C2779      C2784   1.410       .  A
C2780      C2781   1.413       .  A
C2780     Br2791   1.927       .  S
C2781      C2782   1.414       .  A
C2781     Br2787   1.932       .  S
C2782      C2783   1.409       .  A
C2783      C2784   1.408       .  A
C2783     Br2792   1.930       .  S
C2784     Br2788   1.929       .  S
C2793      C2794   1.422       .  A
C2793      C2798   1.418       .  A
C2794      C2795   1.413       .  A
C2794     Br2806   1.928       .  S
C2795      C2796   1.406       .  A
C2795     Br2810   1.931       .  S
C2796      C2799   1.493       .  S
C2796      C2797   1.407       .  A
C2797      C2798   1.412       .  A
C2797     Br2805   1.933       .  S
C2798     Br2809   1.922       .  S
C2799      C2800   1.408       .  A
C2799      C2804   1.411       .  A
C2800      C2801   1.409       .  A
C2800     Br2811   1.932       .  S
C2801      C2802   1.417       .  A
C2801     Br2807   1.934       .  S
C2802      C2803   1.413       .  A
C2803      C2804   1.413       .  A
C2803     Br2812   1.929       .  S
C2804     Br2808   1.928       .  S
C2813      C2814   1.424       .  A
C2813      C2818   1.420       .  A
C2814      C2815   1.408       .  A
C2814     Br2826   1.925       .  S
C2815      C2816   1.404       .  A
C2815     Br2830   1.935       .  S
C2816      C2819   1.487       .  S
C2816      C2817   1.405       .  A
C2817      C2818   1.411       .  A
C2817     Br2825   1.932       .  S
C2818     Br2829   1.922       .  S
C2819      C2820   1.408       .  A
C2819      C2824   1.411       .  A
C2820      C2821   1.406       .  A
C2820     Br2831   1.931       .  S
C2821      C2822   1.413       .  A
C2821     Br2827   1.933       .  S
C2822      C2823   1.412       .  A
C2823      C2824   1.410       .  A
C2823     Br2832   1.929       .  S
C2824     Br2828   1.929       .  S
C2833      C2834   1.414       .  A
C2833      C2838   1.415       .  A
C2834      C2835   1.413       .  A
C2834     Br2846   1.930       .  S
C2835      C2836   1.410       .  A
C2835     Br2850   1.928       .  S
C2836      C2839   1.493       .  S
C2836      C2837   1.409       .  A
C2837      C2838   1.409       .  A
C2837     Br2845   1.932       .  S
C2838     Br2849   1.931       .  S
C2839      C2840   1.405       .  A
C2839      C2844   1.406       .  A
C2840      C2841   1.410       .  A
C2840     Br2851   1.931       .  S
C2841      C2842   1.420       .  A
C2841     Br2847   1.927       .  S
C2842      C2843   1.422       .  A
C2843      C2844   1.414       .  A
C2843     Br2852   1.921       .  S
C2844     Br2848   1.933       .  S
C2853      C2854   1.416       .  A
C2853      C2858   1.414       .  A
C2854      C2855   1.411       .  A
C2854     Br2866   1.930       .  S
C2855      C2856   1.408       .  A
C2855     Br2870   1.929       .  S
C2856      C2859   1.489       .  S
C2856      C2857   1.409       .  A
C2857      C2858   1.406       .  A
C2857     Br2865   1.932       .  S
C2858     Br2869   1.933       .  S
C2859      C2860   1.398       .  A
C2859      C2864   1.400       .  A
C2860      C2861   1.411       .  A
C2860     Br2871   1.939       .  S
C2861      C2862   1.441       .  A
C2861     Br2867   1.938       .  S
C2862      C2863   1.434       .  A
C2863      C2864   1.414       .  A
C2863     Br2872   1.923       .  S
C2864     Br2868   1.936       .  S
C2873      C2874   1.415       .  A
C2873      C2878   1.417       .  A
C2874      C2875   1.409       .  A
C2874     Br2886   1.920       .  S
C2875      C2876   1.407       .  A
C2875     Br2890   1.932       .  S
C2876      C2879   1.483       .  S
C2876      C2877   1.405       .  A
C2877      C2878   1.406       .  A
C2877     Br2885   1.932       .  S
C2878     Br2889   1.929       .  S
C2879      C2880   1.408       .  A
C2879      C2884   1.404       .  A
C2880      C2881   1.411       .  A
C2880     Br2891   1.930       .  S
C2881      C2882   1.416       .  A
C2881     Br2887   1.931       .  S
C2882      C2883   1.421       .  A
C2883      C2884   1.404       .  A
C2883     Br2892   1.934       .  S
C2884     Br2888   1.934       .  S
C2893      C2894   1.421       .  A
C2893      C2898   1.418       .  A
C2894      C2895   1.411       .  A
C2894     Br2906   1.934       .  S
C2895      C2896   1.406       .  A
C2895     Br2910   1.929       .  S
C2896      C2899   1.485       .  S
C2896      C2897   1.404       .  A
C2897      C2898   1.405       .  A
C2897     Br2905   1.936       .  S
C2898     Br2909   1.921       .  S
C2899      C2900   1.406       .  A
C2899      C2904   1.406       .  A
C2900      C2901   1.409       .  A
C2900     Br2911   1.931       .  S
C2901      C2902   1.421       .  A
C2901     Br2907   1.933       .  S
C2902      C2903   1.417       .  A
C2903      C2904   1.408       .  A
C2903     Br2912   1.924       .  S
C2904     Br2908   1.934       .  S
C2913      C2914   1.410       .  A
C2913      C2918   1.409       .  A
C2914      C2915   1.407       .  A
C2914     Br2926   1.927       .  S
C2915      C2916   1.407       .  A
C2915     Br2930   1.928       .  S
C2916      C2919   1.486       .  S
C2916      C2917   1.412       .  A
C2917      C2918   1.408       .  A
C2917     Br2925   1.930       .  S
C2918     Br2929   1.930       .  S
C2919      C2920   1.397       .  A
C2919      C2924   1.399       .  A
C2920      C2921   1.410       .  A
C2920     Br2931   1.937       .  S
C2921      C2922   1.439       .  A
C2921     Br2927   1.928       .  S
C2922      C2923   1.439       .  A
C2923      C2924   1.412       .  A
C2923     Br2932   1.933       .  S
C2924     Br2928   1.937       .  S
C2933      C2934   1.412       .  A
C2933      C2938   1.413       .  A
C2934      C2935   1.410       .  A
C2934     Br2946   1.928       .  S
C2935      C2936   1.409       .  A
C2935     Br2950   1.929       .  S
C2936      C2939   1.484       .  S
C2936      C2937   1.407       .  A
C2937      C2938   1.405       .  A
C2937     Br2945   1.931       .  S
C2938     Br2949   1.931       .  S
C2939      C2940   1.403       .  A
C2939      C2944   1.405       .  A
C2940      C2941   1.404       .  A
C2940     Br2951   1.934       .  S
C2941      C2942   1.417       .  A
C2941     Br2947   1.922       .  S
C2942      C2943   1.421       .  A
C2943      C2944   1.413       .  A
C2943     Br2952   1.917       .  S
C2944     Br2948   1.931       .  S
C2953      C2954   1.416       .  A
C2953      C2958   1.422       .  A
C2954      C2955   1.412       .  A
C2954     Br2966   1.926       .  S
C2955      C2956   1.408       .  A
C2955     Br2970   1.930       .  S
C2956      C2959   1.494       .  S
C2956      C2957   1.407       .  A
C2957      C2958   1.412       .  A
C2957     Br2965   1.931       .  S
C2958     Br2969   1.935       .  S
C2959      C2960   1.409       .  A
C2959      C2964   1.408       .  A
C2960      C2961   1.411       .  A
C2960     Br2971   1.930       .  S
C2961      C2962   1.417       .  A
C2961     Br2967   1.933       .  S
C2962      C2963   1.414       .  A
C2963      C2964   1.411       .  A
C2963     Br2972   1.922       .  S
C2964     Br2968   1.930       .  S
C2973      C2974   1.410       .  A
C2973      C2978   1.409       .  A
C2974      C2975   1.407       .  A
C2974     Br2986   1.930       .  S
C2975      C2976   1.408       .  A
C2975     Br2990   1.929       .  S
C2976      C2979   1.483       .  S
C2976      C2977   1.410       .  A
C2977      C2978   1.406       .  A
C2977     Br2985   1.930       .  S
C2978     Br2989   1.930       .  S
C2979      C2980   1.403       .  A
C2979      C2984   1.405       .  A
C2980      C2981   1.406       .  A
C2980     Br2991   1.934       .  S
C2981      C2982   1.422       .  A
C2981     Br2987   1.921       .  S
C2982      C2983   1.423       .  A
C2983      C2984   1.409       .  A
C2983     Br2992   1.934       .  S
C2984     Br2988   1.930       .  S
C2993      C2994   1.410       .  A
C2993      C2998   1.408       .  A
C2994      C2995   1.404       .  A
C2994     Br3006   1.930       .  S
C2995      C2996   1.408       .  A
C2995     Br3010   1.931       .  S
C2996      C2999   1.483       .  S
C2996      C2997   1.410       .  A
C2997      C2998   1.407       .  A
C2997     Br3005   1.928       .  S
C2998     Br3009   1.927       .  S
C2999      C3000   1.404       .  A
C2999      C3004   1.402       .  A
C3000      C3001   1.410       .  A
C3000     Br3011   1.935       .  S
C3001      C3002   1.424       .  A
C3001     Br3007   1.926       .  S
C3002      C3003   1.427       .  A
C3003      C3004   1.408       .  A
C3003     Br3012   1.932       .  S
C3004     Br3008   1.935       .  S
C3013      C3014   1.420       .  A
C3013      C3018   1.420       .  A
C3014      C3015   1.405       .  A
C3014     Br3026   1.925       .  S
C3015      C3016   1.404       .  A
C3015     Br3030   1.935       .  S
C3016      C3019   1.488       .  S
C3016      C3017   1.407       .  A
C3017      C3018   1.413       .  A
C3017     Br3025   1.931       .  S
C3018     Br3029   1.923       .  S
C3019      C3020   1.408       .  A
C3019      C3024   1.404       .  A
C3020      C3021   1.413       .  A
C3020     Br3031   1.930       .  S
C3021      C3022   1.419       .  A
C3021     Br3027   1.932       .  S
C3022      C3023   1.425       .  A
C3023      C3024   1.406       .  A
C3023     Br3032   1.939       .  S
C3024     Br3028   1.936       .  S
C3033      C3034   1.422       .  A
C3033      C3038   1.418       .  A
C3034      C3035   1.407       .  A
C3034     Br3046   1.934       .  S
C3035      C3036   1.405       .  A
C3035     Br3050   1.933       .  S
C3036      C3039   1.486       .  S
C3036      C3037   1.408       .  A
C3037      C3038   1.411       .  A
C3037     Br3045   1.931       .  S
C3038     Br3049   1.932       .  S
C3039      C3040   1.402       .  A
C3039      C3044   1.407       .  A
C3040      C3041   1.405       .  A
C3040     Br3051   1.935       .  S
C3041      C3042   1.425       .  A
C3041     Br3047   1.931       .  S
C3042      C3043   1.421       .  A
C3043      C3044   1.413       .  A
C3043     Br3052   1.925       .  S
C3044     Br3048   1.931       .  S
C3053      C3054   1.409       .  A
C3053      C3058   1.411       .  A
C3054      C3055   1.410       .  A
C3054     Br3066   1.928       .  S
C3055      C3056   1.411       .  A
C3055     Br3070   1.928       .  S
C3056      C3059   1.490       .  S
C3056      C3057   1.409       .  A
C3057      C3058   1.408       .  A
C3057     Br3065   1.929       .  S
C3058     Br3069   1.929       .  S
C3059      C3060   1.407       .  A
C3059      C3064   1.406       .  A
C3060      C3061   1.412       .  A
C3060     Br3071   1.930       .  S
C3061      C3062   1.421       .  A
C3061     Br3067   1.934       .  S
C3062      C3063   1.417       .  A
C3063      C3064   1.410       .  A
C3063     Br3072   1.922       .  S
C3064     Br3068   1.933       .  S
C3073      C3074   1.413       .  A
C3073      C3078   1.410       .  A
C3074      C3075   1.408       .  A
C3074     Br3086   1.933       .  S
C3075      C3076   1.410       .  A
C3075     Br3090   1.930       .  S
C3076      C3079   1.492       .  S
C3076      C3077   1.412       .  A
C3077      C3078   1.411       .  A
C3077     Br3085   1.929       .  S
C3078     Br3089   1.928       .  S
C3079      C3080   1.407       .  A
C3079      C3084   1.404       .  A
C3080      C3081   1.413       .  A
C3080     Br3091   1.934       .  S
C3081      C3082   1.422       .  A
C3081     Br3087   1.924       .  S
C3082      C3083   1.421       .  A
C3083      C3084   1.410       .  A
C3083     Br3092   1.924       .  S
C3084     Br3088   1.933       .  S
C3093      C3094   1.435       .  A
C3093      C3098   1.428       .  A
C3094      C3095   1.414       .  A
C3094     Br3106   1.933       .  S
C3095      C3096   1.404       .  A
C3095     Br3110   1.939       .  S
C3096      C3099   1.488       .  S
C3096      C3097   1.402       .  A
C3097      C3098   1.407       .  A
C3097     Br3105   1.935       .  S
C3098     Br3109   1.934       .  S
C3099      C3100   1.412       .  A
C3099      C3104   1.409       .  A
C3100      C3101   1.411       .  A
C3100     Br3111   1.930       .  S
C3101      C3102   1.411       .  A
C3101     Br3107   1.929       .  S
C3102      C3103   1.408       .  A
C3103      C3104   1.404       .  A
C3103     Br3112   1.922       .  S
C3104     Br3108   1.931       .  S
C3113      C3114   1.427       .  A
C3113      C3118   1.430       .  A
C3114      C3115   1.414       .  A
C3114     Br3126   1.927       .  S
C3115      C3116   1.404       .  A
C3115     Br3130   1.932       .  S
C3116      C3119   1.488       .  S
C3116      C3117   1.402       .  A
C3117      C3118   1.407       .  A
C3117     Br3125   1.934       .  S
C3118     Br3129   1.935       .  S
C3119      C3120   1.406       .  A
C3119      C3124   1.405       .  A
C3120      C3121   1.410       .  A
C3120     Br3131   1.933       .  S
C3121      C3122   1.424       .  A
C3121     Br3127   1.934       .  S
C3122      C3123   1.422       .  A
C3123      C3124   1.410       .  A
C3123     Br3132   1.934       .  S
C3124     Br3128   1.932       .  S
C3133      C3134   1.414       .  A
C3133      C3138   1.411       .  A
C3134      C3135   1.407       .  A
C3134     Br3146   1.924       .  S
C3135      C3136   1.407       .  A
C3135     Br3150   1.930       .  S
C3136      C3139   1.492       .  S
C3136      C3137   1.411       .  A
C3137      C3138   1.412       .  A
C3137     Br3145   1.930       .  S
C3138     Br3149   1.920       .  S
C3139      C3140   1.405       .  A
C3139      C3144   1.408       .  A
C3140      C3141   1.409       .  A
C3140     Br3151   1.933       .  S
C3141      C3142   1.424       .  A
C3141     Br3147   1.935       .  S
C3142      C3143   1.421       .  A
C3143      C3144   1.413       .  A
C3143     Br3152   1.933       .  S
C3144     Br3148   1.931       .  S
C3153      C3154   1.425       .  A
C3153      C3158   1.423       .  A
C3154      C3155   1.406       .  A
C3154     Br3166   1.936       .  S
C3155      C3156   1.403       .  A
C3155     Br3170   1.932       .  S
C3156      C3159   1.486       .  S
C3156      C3157   1.407       .  A
C3157      C3158   1.411       .  A
C3157     Br3165   1.934       .  S
C3158     Br3169   1.928       .  S
C3159      C3160   1.409       .  A
C3159      C3164   1.411       .  A
C3160      C3161   1.405       .  A
C3160     Br3171   1.930       .  S
C3161      C3162   1.409       .  A
C3161     Br3167   1.930       .  S
C3162      C3163   1.410       .  A
C3163      C3164   1.410       .  A
C3163     Br3172   1.929       .  S
C3164     Br3168   1.929       .  S
C3173      C3174   1.420       .  A
C3173      C3178   1.417       .  A
C3174      C3175   1.411       .  A
C3174     Br3186   1.934       .  S
C3175      C3176   1.408       .  A
C3175     Br3190   1.931       .  S
C3176      C3179   1.492       .  S
C3176      C3177   1.408       .  A
C3177      C3178   1.412       .  A
C3177     Br3185   1.930       .  S
C3178     Br3189   1.926       .  S
C3179      C3180   1.407       .  A
C3179      C3184   1.408       .  A
C3180      C3181   1.410       .  A
C3180     Br3191   1.933       .  S
C3181      C3182   1.417       .  A
C3181     Br3187   1.922       .  S
C3182      C3183   1.419       .  A
C3183      C3184   1.413       .  A
C3183     Br3192   1.931   1_556  S
C3184     Br3188   1.929       .  S
C3193      C3194   1.424       .  A
C3193      C3198   1.424       .  A
C3194      C3195   1.410       .  A
C3194     Br3206   1.934       .  S
C3195      C3196   1.405       .  A
C3195     Br3210   1.931       .  S
C3196      C3199   1.483       .  S
C3196      C3197   1.402       .  A
C3197      C3198   1.406       .  A
C3197     Br3205   1.933       .  S
C3198     Br3209   1.922       .  S
C3199      C3200   1.408       .  A
C3199      C3204   1.407       .  A
C3200      C3201   1.407       .  A
C3200     Br3211   1.930       .  S
C3201      C3202   1.412       .  A
C3201     Br3207   1.929       .  S
C3202      C3203   1.412       .  A
C3203      C3204   1.407       .  A
C3203     Br3212   1.930       .  S
C3204     Br3208   1.930       .  S
C3213      C3214   1.420       .  A
C3213      C3218   1.418       .  A
C3214      C3215   1.408       .  A
C3214     Br3226   1.921       .  S
C3215      C3216   1.405       .  A
C3215     Br3230   1.934       .  S
C3216      C3219   1.492       .  S
C3216      C3217   1.409       .  A
C3217      C3218   1.414       .  A
C3217     Br3225   1.931       .  S
C3218     Br3229   1.924       .  S
C3219      C3220   1.409       .  A
C3219      C3224   1.411       .  A
C3220      C3221   1.408       .  A
C3220     Br3231   1.932       .  S
C3221      C3222   1.413       .  A
C3221     Br3227   1.929       .  S
C3222      C3223   1.415       .  A
C3223      C3224   1.412       .  A
C3223     Br3232   1.930       .  S
C3224     Br3228   1.930       .  S
C3233      C3234   1.414       .  A
C3233      C3238   1.422       .  A
C3234      C3235   1.410       .  A
C3234     Br3246   1.927       .  S
C3235      C3236   1.409       .  A
C3235     Br3250   1.930       .  S
C3236      C3239   1.484       .  S
C3236      C3237   1.404       .  A
C3237      C3238   1.404       .  A
C3237     Br3245   1.932       .  S
C3238     Br3249   1.937       .  S
C3239      C3240   1.405       .  A
C3239      C3244   1.409       .  A
C3240      C3241   1.405       .  A
C3240     Br3251   1.933       .  S
C3241      C3242   1.420       .  A
C3241     Br3247   1.934       .  S
C3242      C3243   1.415       .  A
C3243      C3244   1.411       .  A
C3243     Br3252   1.929       .  S
C3244     Br3248   1.930       .  S
C3253      C3254   1.423       .  A
C3253      C3258   1.420       .  A
C3254      C3255   1.414       .  A
C3254     Br3266   1.920       .  S
C3255      C3256   1.407       .  A
C3255     Br3270   1.934       .  S
C3256      C3259   1.501       .  S
C3256      C3257   1.409       .  A
C3257      C3258   1.415       .  A
C3257     Br3265   1.930       .  S
C3258     Br3269   1.929       .  S
C3259      C3260   1.412       .  A
C3259      C3264   1.410       .  A
C3260      C3261   1.416       .  A
C3260     Br3271   1.930       .  S
C3261      C3262   1.417       .  A
C3261     Br3267   1.930       .  S
C3262      C3263   1.418       .  A
C3263      C3264   1.413       .  A
C3263     Br3272   1.933       .  S
C3264     Br3268   1.931       .  S
C3273      C3274   1.432       .  A
C3273      C3278   1.424       .  A
C3274      C3275   1.408       .  A
C3274     Br3286   1.930       .  S
C3275      C3276   1.402       .  A
C3275     Br3290   1.937       .  S
C3276      C3279   1.493       .  S
C3276      C3277   1.406       .  A
C3277      C3278   1.416       .  A
C3277     Br3285   1.929       .  S
C3278     Br3289   1.926       .  S
C3279      C3280   1.410       .  A
C3279      C3284   1.409       .  A
C3280      C3281   1.411       .  A
C3280     Br3291   1.930       .  S
C3281      C3282   1.415       .  A
C3281     Br3287   1.931       .  S
C3282      C3283   1.414       .  A
C3283      C3284   1.411       .  A
C3283     Br3292   1.930       .  S
C3284     Br3288   1.930       .  S
C3293      C3294   1.424       .  A
C3293      C3298   1.421       .  A
C3294      C3295   1.416       .  A
C3294     Br3306   1.934       .  S
C3295      C3296   1.408       .  A
C3295     Br3310   1.929       .  S
C3296      C3299   1.500       .  S
C3296      C3297   1.407       .  A
C3297      C3298   1.413       .  A
C3297     Br3305   1.933       .  S
C3298     Br3309   1.923       .  S
C3299      C3300   1.410       .  A
C3299      C3304   1.411       .  A
C3300      C3301   1.412       .  A
C3300     Br3311   1.930       .  S
C3301      C3302   1.415       .  A
C3301     Br3307   1.931       .  S
C3302      C3303   1.417       .  A
C3303      C3304   1.416       .  A
C3303     Br3312   1.930       .  S
C3304     Br3308   1.930       .  S
C3313      C3314   1.414       .  A
C3313      C3318   1.417       .  A
C3314      C3315   1.411       .  A
C3314     Br3326   1.930       .  S
C3315      C3316   1.411       .  A
C3315     Br3330   1.931       .  S
C3316      C3319   1.494       .  S
C3316      C3317   1.408       .  A
C3317      C3318   1.411       .  A
C3317     Br3325   1.929       .  S
C3318     Br3329   1.932       .  S
C3319      C3320   1.399       .  A
C3319      C3324   1.401       .  A
C3320      C3321   1.413       .  A
C3320     Br3331   1.937       .  S
C3321      C3322   1.438       .  A
C3321     Br3327   1.924       .  S
C3322      C3323   1.438       .  A
C3323      C3324   1.415       .  A
C3323     Br3332   1.932       .  S
C3324     Br3328   1.937       .  S
C3333      C3334   1.425       .  A
C3333      C3338   1.422       .  A
C3334      C3335   1.409       .  A
C3334     Br3346   1.935       .  S
C3335      C3336   1.404       .  A
C3335     Br3350   1.935       .  S
C3336      C3339   1.487       .  S
C3336      C3337   1.406       .  A
C3337      C3338   1.411       .  A
C3337     Br3345   1.931       .  S
C3338     Br3349   1.933   1_554  S
C3339      C3340   1.409       .  A
C3339      C3344   1.409       .  A
C3340      C3341   1.408       .  A
C3340     Br3351   1.928       .  S
C3341      C3342   1.409       .  A
C3341     Br3347   1.931       .  S
C3342      C3343   1.412       .  A
C3343      C3344   1.408       .  A
C3343     Br3352   1.931       .  S
C3344     Br3348   1.929       .  S
C3353      C3354   1.423       .  A
C3353      C3358   1.419       .  A
C3354      C3355   1.408       .  A
C3354     Br3366   1.935       .  S
C3355      C3356   1.408       .  A
C3355     Br3370   1.934       .  S
C3356      C3359   1.487       .  S
C3356      C3357   1.406       .  A
C3357      C3358   1.406       .  A
C3357     Br3365   1.928       .  S
C3358     Br3369   1.933       .  S
C3359      C3360   1.410       .  A
C3359      C3364   1.409       .  A
C3360      C3361   1.411       .  A
C3360     Br3371   1.930       .  S
C3361      C3362   1.415       .  A
C3361     Br3367   1.930       .  S
C3362      C3363   1.414       .  A
C3363      C3364   1.405       .  A
C3363     Br3372   1.932       .  S
C3364     Br3368   1.932       .  S
C3373      C3374   1.408       .  A
C3373      C3378   1.408       .  A
C3374      C3375   1.403       .  A
C3374     Br3386   1.928       .  S
C3375      C3376   1.409       .  A
C3375     Br3390   1.932       .  S
C3376      C3379   1.484       .  S
C3376      C3377   1.412       .  A
C3377      C3378   1.409       .  A
C3377     Br3385   1.929       .  S
C3378     Br3389   1.928   1_455  S
C3379      C3380   1.407       .  A
C3379      C3384   1.404       .  A
C3380      C3381   1.410       .  A
C3380     Br3391   1.933       .  S
C3381      C3382   1.417       .  A
C3381     Br3387   1.921       .  S
C3382      C3383   1.420       .  A
C3383      C3384   1.406       .  A
C3383     Br3392   1.924       .  S
C3384     Br3388   1.936       .  S
C3393      C3394   1.432       .  A
C3393      C3398   1.424       .  A
C3394      C3395   1.404       .  A
C3394     Br3406   1.932       .  S
C3395      C3396   1.400       .  A
C3395     Br3410   1.938       .  S
C3396      C3399   1.478       .  S
C3396      C3397   1.403       .  A
C3397      C3398   1.409       .  A
C3397     Br3405   1.933       .  S
C3398     Br3409   1.925       .  S
C3399      C3400   1.407       .  A
C3399      C3404   1.406       .  A
C3400      C3401   1.407       .  A
C3400     Br3411   1.931       .  S
C3401      C3402   1.415       .  A
C3401     Br3407   1.933       .  S
C3402      C3403   1.416       .  A
C3403      C3404   1.402       .  A
C3403     Br3412   1.936       .  S
C3404     Br3408   1.932       .  S
C3413      C3414   1.413       .  A
C3413      C3418   1.414       .  A
C3414      C3415   1.406       .  A
C3414     Br3426   1.933       .  S
C3415      C3416   1.408       .  A
C3415     Br3430   1.930       .  S
C3416      C3419   1.478       .  S
C3416      C3417   1.405       .  A
C3417      C3418   1.404       .  A
C3417     Br3425   1.931       .  S
C3418     Br3429   1.929       .  S
C3419      C3420   1.404       .  A
C3419      C3424   1.408       .  A
C3420      C3421   1.405       .  A
C3420     Br3431   1.931       .  S
C3421      C3422   1.417       .  A
C3421     Br3427   1.926       .  S
C3422      C3423   1.409       .  A
C3423      C3424   1.406       .  A
C3423     Br3432   1.922       .  S
C3424     Br3428   1.931       .  S
C3433      C3434   1.426       .  A
C3433      C3438   1.423       .  A
C3434      C3435   1.409       .  A
C3434     Br3446   1.927       .  S
C3435      C3436   1.404       .  A
C3435     Br3450   1.937       .  S
C3436      C3439   1.485       .  S
C3436      C3437   1.404       .  A
C3437      C3438   1.409       .  A
C3437     Br3445   1.931       .  S
C3438     Br3449   1.936       .  S
C3439      C3440   1.403       .  A
C3439      C3444   1.408       .  A
C3440      C3441   1.406       .  A
C3440     Br3451   1.935       .  S
C3441      C3442   1.419       .  A
C3441     Br3447   1.918       .  S
C3442      C3443   1.417       .  A
C3443      C3444   1.411       .  A
C3443     Br3452   1.931   1_655  S
C3444     Br3448   1.929       .  S
C3453      C3454   1.423       .  A
C3453      C3458   1.422       .  A
C3454      C3455   1.408       .  A
C3454     Br3466   1.922       .  S
C3455      C3456   1.405       .  A
C3455     Br3470   1.933       .  S
C3456      C3459   1.487       .  S
C3456      C3457   1.406       .  A
C3457      C3458   1.409       .  A
C3457     Br3465   1.928       .  S
C3458     Br3469   1.934       .  S
C3459      C3460   1.406       .  A
C3459      C3464   1.407       .  A
C3460      C3461   1.408       .  A
C3460     Br3471   1.932       .  S
C3461      C3462   1.421       .  A
C3461     Br3467   1.935   1_655  S
C3462      C3463   1.419       .  A
C3463      C3464   1.412       .  A
C3463     Br3472   1.932       .  S
C3464     Br3468   1.931       .  S
C3473      C3474   1.414       .  A
C3473      C3478   1.409       .  A
C3474      C3475   1.414       .  A
C3474     Br3486   1.928       .  S
C3475      C3476   1.411       .  A
C3475     Br3490   1.927       .  S
C3476      C3479   1.484       .  S
C3476      C3477   1.405       .  A
C3477      C3478   1.400       .  A
C3477     Br3485   1.933       .  S
C3478     Br3489   1.919       .  S
C3479      C3480   1.404       .  A
C3479      C3484   1.407       .  A
C3480      C3481   1.406       .  A
C3480     Br3491   1.933       .  S
C3481      C3482   1.418       .  A
C3481     Br3487   1.927       .  S
C3482      C3483   1.417       .  A
C3483      C3484   1.411       .  A
C3483     Br3492   1.922       .  S
C3484     Br3488   1.932       .  S
C3493      C3494   1.422       .  A
C3493      C3498   1.420       .  A
C3494      C3495   1.413       .  A
C3494     Br3506   1.921       .  S
C3495      C3496   1.407       .  A
C3495     Br3510   1.934       .  S
C3496      C3499   1.495       .  S
C3496      C3497   1.407       .  A
C3497      C3498   1.412       .  A
C3497     Br3505   1.932       .  S
C3498     Br3509   1.925       .  S
C3499      C3500   1.410       .  A
C3499      C3504   1.412       .  A
C3500      C3501   1.408       .  A
C3500     Br3511   1.930       .  S
C3501      C3502   1.412       .  A
C3501     Br3507   1.930       .  S
C3502      C3503   1.410       .  A
C3503      C3504   1.413       .  A
C3503     Br3512   1.928       .  S
C3504     Br3508   1.928       .  S
C3513      C3514   1.427       .  A
C3513      C3518   1.438       .  A
C3514      C3515   1.410       .  A
C3514     Br3526   1.934       .  S
C3515      C3516   1.402       .  A
C3515     Br3530   1.932       .  S
C3516      C3519   1.489       .  S
C3516      C3517   1.402       .  A
C3517      C3518   1.413       .  A
C3517     Br3525   1.940       .  S
C3518     Br3529   1.935       .  S
C3519      C3520   1.409       .  A
C3519      C3524   1.409       .  A
C3520      C3521   1.409       .  A
C3520     Br3531   1.930       .  S
C3521      C3522   1.415       .  A
C3521     Br3527   1.933       .  S
C3522      C3523   1.413       .  A
C3523      C3524   1.409       .  A
C3523     Br3532   1.929       .  S
C3524     Br3528   1.930       .  S
C3533      C3534   1.419       .  A
C3533      C3538   1.421       .  A
C3534      C3535   1.409       .  A
C3534     Br3546   1.924       .  S
C3535      C3536   1.406       .  A
C3535     Br3550   1.933       .  S
C3536      C3539   1.487       .  S
C3536      C3537   1.406       .  A
C3537      C3538   1.408       .  A
C3537     Br3545   1.932       .  S
C3538     Br3549   1.935       .  S
C3539      C3540   1.405       .  A
C3539      C3544   1.409       .  A
C3540      C3541   1.407       .  A
C3540     Br3551   1.934       .  S
C3541      C3542   1.421       .  A
C3541     Br3547   1.931       .  S
C3542      C3543   1.416       .  A
C3543      C3544   1.411       .  A
C3543     Br3552   1.931       .  S
C3544     Br3548   1.931       .  S
C3553      C3554   1.426       .  A
C3553      C3558   1.421       .  A
C3554      C3555   1.414       .  A
C3554     Br3566   1.925       .  S
C3555      C3556   1.406       .  A
C3555     Br3570   1.935       .  S
C3556      C3559   1.493       .  S
C3556      C3557   1.404       .  A
C3557      C3558   1.409       .  A
C3557     Br3565   1.931       .  S
C3558     Br3569   1.924       .  S
C3559      C3560   1.409       .  A
C3559      C3564   1.411       .  A
C3560      C3561   1.409       .  A
C3560     Br3571   1.932       .  S
C3561      C3562   1.415       .  A
C3561     Br3567   1.933       .  S
C3562      C3563   1.414       .  A
C3563      C3564   1.413       .  A
C3563     Br3572   1.929       .  S
C3564     Br3568   1.929       .  S
C3573      C3574   1.424       .  A
C3573      C3578   1.431       .  A
C3574      C3575   1.414       .  A
C3574     Br3586   1.921       .  S
C3575      C3576   1.407       .  A
C3575     Br3590   1.934       .  S
C3576      C3579   1.489       .  S
C3576      C3577   1.402       .  A
C3577      C3578   1.404       .  A
C3577     Br3585   1.936       .  S
C3578     Br3589   1.938       .  S
C3579      C3580   1.410       .  A
C3579      C3584   1.407       .  A
C3580      C3581   1.407       .  A
C3580     Br3591   1.933       .  S
C3581      C3582   1.418       .  A
C3581     Br3587   1.935       .  S
C3582      C3583   1.420       .  A
C3583      C3584   1.408       .  A
C3583     Br3592   1.932       .  S
C3584     Br3588   1.932       .  S
C3593      C3594   1.417       .  A
C3593      C3598   1.415       .  A
C3594      C3595   1.407       .  A
C3594     Br3606   1.933       .  S
C3595      C3596   1.406       .  A
C3595     Br3610   1.930       .  S
C3596      C3599   1.482       .  S
C3596      C3597   1.408       .  A
C3597      C3598   1.405       .  A
C3597     Br3605   1.932       .  S
C3598     Br3609   1.934       .  S
C3599      C3600   1.399       .  A
C3599      C3604   1.398       .  A
C3600      C3601   1.410       .  A
C3600     Br3611   1.936       .  S
C3601      C3602   1.433       .  A
C3601     Br3607   1.927       .  S
C3602      C3603   1.439       .  A
C3603      C3604   1.409       .  A
C3603     Br3612   1.937       .  S
C3604     Br3608   1.940       .  S
C3613      C3614   1.424       .  A
C3613      C3618   1.430       .  A
C3614      C3615   1.410       .  A
C3614     Br3626   1.922       .  S
C3615      C3616   1.403       .  A
C3615     Br3630   1.932       .  S
C3616      C3619   1.486       .  S
C3616      C3617   1.402       .  A
C3617      C3618   1.409       .  A
C3617     Br3625   1.934       .  S
C3618     Br3629   1.929       .  S
C3619      C3620   1.409       .  A
C3619      C3624   1.407       .  A
C3620      C3621   1.408       .  A
C3620     Br3631   1.930       .  S
C3621      C3622   1.412       .  A
C3621     Br3627   1.931       .  S
C3622      C3623   1.414       .  A
C3623      C3624   1.408       .  A
C3623     Br3632   1.931       .  S
C3624     Br3628   1.930       .  S
C3633      C3634   1.413       .  A
C3633      C3638   1.414       .  A
C3634      C3635   1.411       .  A
C3634     Br3646   1.930       .  S
C3635      C3636   1.410       .  A
C3635     Br3650   1.929       .  S
C3636      C3639   1.491       .  S
C3636      C3637   1.409       .  A
C3637      C3638   1.410       .  A
C3637     Br3645   1.931       .  S
C3638     Br3649   1.930       .  S
C3639      C3640   1.406       .  A
C3639      C3644   1.407       .  A
C3640      C3641   1.409       .  A
C3640     Br3651   1.933       .  S
C3641      C3642   1.422       .  A
C3641     Br3647   1.929       .  S
C3642      C3643   1.418       .  A
C3643      C3644   1.412       .  A
C3643     Br3652   1.926       .  S
C3644     Br3648   1.931       .  S
C3653      C3654   1.416       .  A
C3653      C3658   1.411       .  A
C3654      C3655   1.406       .  A
C3654     Br3666   1.930       .  S
C3655      C3656   1.405       .  A
C3655     Br3670   1.930       .  S
C3656      C3659   1.478       .  S
C3656      C3657   1.408       .  A
C3657      C3658   1.404       .  A
C3657     Br3665   1.931       .  S
C3658     Br3669   1.933       .  S
C3659      C3660   1.403       .  A
C3659      C3664   1.406       .  A
C3660      C3661   1.405       .  A
C3660     Br3671   1.931       .  S
C3661      C3662   1.420       .  A
C3661     Br3667   1.935       .  S
C3662      C3663   1.418       .  A
C3663      C3664   1.407       .  A
C3663     Br3672   1.930       .  S
C3664     Br3668   1.932       .  S
C3673      C3674   1.423       .  A
C3673      C3678   1.428       .  A
C3674      C3675   1.403       .  A
C3674     Br3686   1.923       .  S
C3675      C3676   1.402       .  A
C3675     Br3690   1.936       .  S
C3676      C3679   1.487       .  S
C3676      C3677   1.406       .  A
C3677      C3678   1.415       .  A
C3677     Br3685   1.930       .  S
C3678     Br3689   1.932       .  S
C3679      C3680   1.409       .  A
C3679      C3684   1.409       .  A
C3680      C3681   1.406       .  A
C3680     Br3691   1.931       .  S
C3681      C3682   1.411       .  A
C3681     Br3687   1.929       .  S
C3682      C3683   1.412       .  A
C3683      C3684   1.411       .  A
C3683     Br3692   1.929       .  S
C3684     Br3688   1.928       .  S
C3693      C3694   1.411       .  A
C3693      C3698   1.412       .  A
C3694      C3695   1.412       .  A
C3694     Br3706   1.928       .  S
C3695      C3696   1.410       .  A
C3695     Br3710   1.928       .  S
C3696      C3699   1.489       .  S
C3696      C3697   1.409       .  A
C3697      C3698   1.407       .  A
C3697     Br3705   1.930       .  S
C3698     Br3709   1.932       .  S
C3699      C3700   1.403       .  A
C3699      C3704   1.406       .  A
C3700      C3701   1.407       .  A
C3700     Br3711   1.934       .  S
C3701      C3702   1.417       .  A
C3701     Br3707   1.914       .  S
C3702      C3703   1.425       .  A
C3703      C3704   1.415       .  A
C3703     Br3712   1.921       .  S
C3704     Br3708   1.932       .  S
C3713      C3714   1.417       .  A
C3713      C3718   1.420       .  A
C3714      C3715   1.411       .  A
C3714     Br3726   1.933       .  S
C3715      C3716   1.409       .  A
C3715     Br3730   1.930       .  S
C3716      C3719   1.490       .  S
C3716      C3717   1.406       .  A
C3717      C3718   1.409       .  A
C3717     Br3725   1.932       .  S
C3718     Br3729   1.931       .  S
C3719      C3720   1.407       .  A
C3719      C3724   1.406       .  A
C3720      C3721   1.412       .  A
C3720     Br3731   1.931       .  S
C3721      C3722   1.423       .  A
C3721     Br3727   1.934       .  S
C3722      C3723   1.418       .  A
C3723      C3724   1.408       .  A
C3723     Br3732   1.924       .  S
C3724     Br3728   1.934       .  S
C3733      C3734   1.422       .  A
C3733      C3738   1.418       .  A
C3734      C3735   1.403       .  A
C3734     Br3746   1.925       .  S
C3735      C3736   1.402       .  A
C3735     Br3750   1.934       .  S
C3736      C3739   1.479       .  S
C3736      C3737   1.406       .  A
C3737      C3738   1.408       .  A
C3737     Br3745   1.931       .  S
C3738     Br3749   1.925       .  S
C3739      C3740   1.410       .  A
C3739      C3744   1.408       .  A
C3740      C3741   1.408       .  A
C3740     Br3751   1.929       .  S
C3741      C3742   1.410       .  A
C3741     Br3747   1.928       .  S
C3742      C3743   1.407       .  A
C3743      C3744   1.402       .  A
C3743     Br3752   1.929       .  S
C3744     Br3748   1.932       .  S
C3753      C3754   1.413       .  A
C3753      C3758   1.414       .  A
C3754      C3755   1.414       .  A
C3754     Br3766   1.928       .  S
C3755      C3756   1.412       .  A
C3755     Br3770   1.929       .  S
C3756      C3759   1.493       .  S
C3756      C3757   1.407       .  A
C3757      C3758   1.408       .  A
C3757     Br3765   1.929       .  S
C3758     Br3769   1.932       .  S
C3759      C3760   1.406       .  A
C3759      C3764   1.408       .  A
C3760      C3761   1.408       .  A
C3760     Br3771   1.933       .  S
C3761      C3762   1.419       .  A
C3761     Br3767   1.926       .  S
C3762      C3763   1.418       .  A
C3763      C3764   1.415       .  A
C3763     Br3772   1.921       .  S
C3764     Br3768   1.929       .  S
C3773      C3774   1.413       .  A
C3773      C3778   1.414       .  A
C3774      C3775   1.410       .  A
C3774     Br3786   1.931       .  S
C3775      C3776   1.410       .  A
C3775     Br3790   1.929       .  S
C3776      C3779   1.490       .  S
C3776      C3777   1.409       .  A
C3777      C3778   1.409       .  A
C3777     Br3785   1.930       .  S
C3778     Br3789   1.930       .  S
C3779      C3780   1.413       .  A
C3779      C3784   1.409       .  A
C3780      C3781   1.411       .  A
C3780     Br3791   1.928       .  S
C3781      C3782   1.407       .  A
C3781     Br3787   1.928       .  S
C3782      C3783   1.410       .  A
C3783      C3784   1.407       .  A
C3783     Br3792   1.930       .  S
C3784     Br3788   1.930       .  S
C3793      C3794   1.416       .  A
C3793      C3798   1.416       .  A
C3794      C3795   1.406       .  A
C3794     Br3806   1.934       .  S
C3795      C3796   1.406       .  A
C3795     Br3810   1.930       .  S
C3796      C3799   1.475       .  S
C3796      C3797   1.405       .  A
C3797      C3798   1.402       .  A
C3797     Br3805   1.933       .  S
C3798     Br3809   1.934       .  S
C3799      C3800   1.398       .  A
C3799      C3804   1.401       .  A
C3800      C3801   1.401       .  A
C3800     Br3811   1.939       .  S
C3801      C3802   1.430       .  A
C3801     Br3807   1.933       .  S
C3802      C3803   1.430       .  A
C3803      C3804   1.411       .  A
C3803     Br3812   1.930       .  S
C3804     Br3808   1.934       .  S
C3813      C3814   1.412       .  A
C3813      C3818   1.412       .  A
C3814      C3815   1.411       .  A
C3814     Br3826   1.929       .  S
C3815      C3816   1.411       .  A
C3815     Br3830   1.929       .  S
C3816      C3819   1.492       .  S
C3816      C3817   1.409       .  A
C3817      C3818   1.408       .  A
C3817     Br3825   1.930       .  S
C3818     Br3829   1.927       .  S
C3819      C3820   1.402       .  A
C3819      C3824   1.406       .  A
C3820      C3821   1.410       .  A
C3820     Br3831   1.936       .  S
C3821      C3822   1.423       .  A
C3821     Br3827   1.911       .  S
C3822      C3823   1.422       .  A
C3823      C3824   1.414       .  A
C3823     Br3832   1.920       .  S
C3824     Br3828   1.932       .  S
C3833      C3834   1.409       .  A
C3833      C3838   1.411       .  A
C3834      C3835   1.406       .  A
C3834     Br3846   1.926       .  S
C3835      C3836   1.408       .  A
C3835     Br3850   1.930       .  S
C3836      C3839   1.482       .  S
C3836      C3837   1.408       .  A
C3837      C3838   1.407       .  A
C3837     Br3845   1.930       .  S
C3838     Br3849   1.928       .  S
C3839      C3840   1.403       .  A
C3839      C3844   1.408       .  A
C3840      C3841   1.403       .  A
C3840     Br3851   1.933       .  S
C3841      C3842   1.416       .  A
C3841     Br3847   1.924       .  S
C3842      C3843   1.413       .  A
C3843      C3844   1.411       .  A
C3843     Br3852   1.922       .  S
C3844     Br3848   1.929       .  S
C3853      C3854   1.423       .  A
C3853      C3858   1.423       .  A
C3854      C3855   1.409       .  A
C3854     Br3866   1.934       .  S
C3855      C3856   1.404       .  A
C3855     Br3870   1.931       .  S
C3856      C3859   1.484       .  S
C3856      C3857   1.404       .  A
C3857      C3858   1.409       .  A
C3857     Br3865   1.936       .  S
C3858     Br3869   1.924       .  S
C3859      C3860   1.408       .  A
C3859      C3864   1.408       .  A
C3860      C3861   1.410       .  A
C3860     Br3871   1.929       .  S
C3861      C3862   1.415       .  A
C3861     Br3867   1.933   1_455  S
C3862      C3863   1.412       .  A
C3863      C3864   1.405       .  A
C3863     Br3872   1.928       .  S
C3864     Br3868   1.932       .  S
C3873      C3874   1.420       .  A
C3873      C3878   1.423       .  A
C3874      C3875   1.404       .  A
C3874     Br3886   1.919       .  S
C3875      C3876   1.404       .  A
C3875     Br3890   1.934       .  S
C3876      C3879   1.488       .  S
C3876      C3877   1.408       .  A
C3877      C3878   1.413       .  A
C3877     Br3885   1.929       .  S
C3878     Br3889   1.934       .  S
C3879      C3880   1.410       .  A
C3879      C3884   1.410       .  A
C3880      C3881   1.407       .  A
C3880     Br3891   1.932       .  S
C3881      C3882   1.413       .  A
C3881     Br3887   1.932   1_455  S
C3882      C3883   1.412       .  A
C3883      C3884   1.411       .  A
C3883     Br3892   1.929       .  S
C3884     Br3888   1.929       .  S
C3893      C3894   1.427       .  A
C3893      C3898   1.431       .  A
C3894      C3895   1.416       .  A
C3894     Br3906   1.934       .  S
C3895      C3896   1.407       .  A
C3895     Br3910   1.932       .  S
C3896      C3899   1.498       .  S
C3896      C3897   1.405       .  A
C3897      C3898   1.413       .  A
C3897     Br3905   1.937       .  S
C3898     Br3909   1.934       .  S
C3899      C3900   1.406       .  A
C3899      C3904   1.405       .  A
C3900      C3901   1.413       .  A
C3900     Br3911   1.933       .  S
C3901      C3902   1.426       .  A
C3901     Br3907   1.931       .  S
C3902      C3903   1.428       .  A
C3903      C3904   1.414       .  A
C3903     Br3912   1.927       .  S
C3904     Br3908   1.934       .  S
C3913      C3914   1.421       .  A
C3913      C3918   1.424       .  A
C3914      C3915   1.411       .  A
C3914     Br3926   1.932       .  S
C3915      C3916   1.407       .  A
C3915     Br3930   1.929       .  S
C3916      C3919   1.488       .  S
C3916      C3917   1.406       .  A
C3917      C3918   1.408       .  A
C3917     Br3925   1.932       .  S
C3918     Br3929   1.935       .  S
C3919      C3920   1.410       .  A
C3919      C3924   1.409       .  A
C3920      C3921   1.409       .  A
C3920     Br3931   1.929       .  S
C3921      C3922   1.410       .  A
C3921     Br3927   1.931       .  S
C3922      C3923   1.414       .  A
C3923      C3924   1.409       .  A
C3923     Br3932   1.931       .  S
C3924     Br3928   1.930       .  S
C3933      C3934   1.421       .  A
C3933      C3938   1.423       .  A
C3934      C3935   1.416       .  A
C3934     Br3946   1.923       .  S
C3935      C3936   1.407       .  A
C3935     Br3950   1.932       .  S
C3936      C3939   1.496       .  S
C3936      C3937   1.404       .  A
C3937      C3938   1.412       .  A
C3937     Br3945   1.934       .  S
C3938     Br3949   1.920       .  S
C3939      C3940   1.409       .  A
C3939      C3944   1.411       .  A
C3940      C3941   1.410       .  A
C3940     Br3951   1.930       .  S
C3941      C3942   1.414       .  A
C3941     Br3947   1.928       .  S
C3942      C3943   1.416       .  A
C3943      C3944   1.413       .  A
C3943     Br3952   1.930       .  S
C3944     Br3948   1.929       .  S
C3953      C3954   1.422       .  A
C3953      C3958   1.421       .  A
C3954      C3955   1.415       .  A
C3954     Br3966   1.931       .  S
C3955      C3956   1.408       .  A
C3955     Br3970   1.929       .  S
C3956      C3959   1.497       .  S
C3956      C3957   1.405       .  A
C3957      C3958   1.411       .  A
C3957     Br3965   1.935       .  S
C3958     Br3969   1.919       .  S
C3959      C3960   1.407       .  A
C3959      C3964   1.405       .  A
C3960      C3961   1.416       .  A
C3960     Br3971   1.931       .  S
C3961      C3962   1.426       .  A
C3961     Br3967   1.934   1_565  S
C3962      C3963   1.427       .  A
C3963      C3964   1.412       .  A
C3963     Br3972   1.932       .  S
C3964     Br3968   1.935       .  S
C3973      C3974   1.425       .  A
C3973      C3978   1.431       .  A
C3974      C3975   1.416       .  A
C3974     Br3986   1.928       .  S
C3975      C3976   1.406       .  A
C3975     Br3990   1.930       .  S
C3976      C3979   1.490       .  S
C3976      C3977   1.401       .  A
C3977      C3978   1.406       .  A
C3977     Br3985   1.937       .  S
C3978     Br3989   1.930       .  S
C3979      C3980   1.410       .  A
C3979      C3984   1.410       .  A
C3980      C3981   1.407       .  A
C3980     Br3991   1.931       .  S
C3981      C3982   1.409       .  A
C3981     Br3987   1.926       .  S
C3982      C3983   1.411       .  A
C3983      C3984   1.411       .  A
C3983     Br3992   1.930       .  S
C3984     Br3988   1.928       .  S
C3993      C3994   1.421       .  A
C3993      C3998   1.427       .  A
C3994      C3995   1.412       .  A
C3994     Br4006   1.929       .  S
C3995      C3996   1.406       .  A
C3995     Br4010   1.930       .  S
C3996      C3999   1.497       .  S
C3996      C3997   1.406       .  A
C3997      C3998   1.415       .  A
C3997     Br4005   1.934       .  S
C3998     Br4009   1.924       .  S
C3999      C4000   1.409       .  A
C3999      C4004   1.410       .  A
C4000      C4001   1.413       .  A
C4000     Br4011   1.930       .  S
C4001      C4002   1.417       .  A
C4001     Br4007   1.932       .  S
C4002      C4003   1.417       .  A
C4003      C4004   1.413       .  A
C4003     Br4012   1.931       .  S
C4004     Br4008   1.930       .  S
C4013      C4014   1.425       .  A
C4013      C4018   1.435       .  A
C4014      C4015   1.417       .  A
C4014     Br4026   1.924       .  S
C4015      C4016   1.406       .  A
C4015     Br4030   1.930       .  S
C4016      C4019   1.491       .  S
C4016      C4017   1.400       .  A
C4017      C4018   1.407       .  A
C4017     Br4025   1.938       .  S
C4018     Br4029   1.935       .  S
C4019      C4020   1.409       .  A
C4019      C4024   1.409       .  A
C4020      C4021   1.409       .  A
C4020     Br4031   1.930       .  S
C4021      C4022   1.415       .  A
C4021     Br4027   1.930       .  S
C4022      C4023   1.415       .  A
C4023      C4024   1.410       .  A
C4023     Br4032   1.931       .  S
C4024     Br4028   1.930       .  S
C4033      C4034   1.421       .  A
C4033      C4038   1.420       .  A
C4034      C4035   1.408       .  A
C4034     Br4046   1.919       .  S
C4035      C4036   1.404       .  A
C4035     Br4050   1.937       .  S
C4036      C4039   1.487       .  S
C4036      C4037   1.406       .  A
C4037      C4038   1.411       .  A
C4037     Br4045   1.930       .  S
C4038     Br4049   1.927       .  S
C4039      C4040   1.411       .  A
C4039      C4044   1.407       .  A
C4040      C4041   1.411       .  A
C4040     Br4051   1.929       .  S
C4041      C4042   1.411       .  A
C4041     Br4047   1.928   1_655  S
C4042      C4043   1.416       .  A
C4043      C4044   1.407       .  A
C4043     Br4052   1.934       .  S
C4044     Br4048   1.931       .  S
C4053      C4054   1.422       .  A
C4053      C4058   1.430       .  A
C4054      C4055   1.411       .  A
C4054     Br4066   1.923       .  S
C4055      C4056   1.404       .  A
C4055     Br4070   1.931       .  S
C4056      C4059   1.485       .  S
C4056      C4057   1.402       .  A
C4057      C4058   1.407       .  A
C4057     Br4065   1.934       .  S
C4058     Br4069   1.935       .  S
C4059      C4060   1.402       .  A
C4059      C4064   1.405       .  A
C4060      C4061   1.408       .  A
C4060     Br4071   1.934       .  S
C4061      C4062   1.428       .  A
C4061     Br4067   1.938       .  S
C4062      C4063   1.426       .  A
C4063      C4064   1.411       .  A
C4063     Br4072   1.936       .  S
C4064     Br4068   1.933       .  S
C4073      C4074   1.423       .  A
C4073      C4078   1.423       .  A
C4074      C4075   1.415       .  A
C4074     Br4086   1.933       .  S
C4075      C4076   1.407       .  A
C4075     Br4090   1.931       .  S
C4076      C4079   1.494       .  S
C4076      C4077   1.406       .  A
C4077      C4078   1.410       .  A
C4077     Br4085   1.934       .  S
C4078     Br4089   1.930       .  S
C4079      C4080   1.408       .  A
C4079      C4084   1.404       .  A
C4080      C4081   1.412       .  A
C4080     Br4091   1.930       .  S
C4081      C4082   1.423       .  A
C4081     Br4087   1.932       .  S
C4082      C4083   1.426       .  A
C4083      C4084   1.411       .  A
C4083     Br4092   1.925       .  S
C4084     Br4088   1.933       .  S
C4093      C4094   1.429       .  A
C4093      C4098   1.424       .  A
C4094      C4095   1.412       .  A
C4094     Br4106   1.934       .  S
C4095      C4096   1.406       .  A
C4095     Br4110   1.932       .  S
C4096      C4099   1.501       .  S
C4096      C4097   1.408       .  A
C4097      C4098   1.417       .  A
C4097     Br4105   1.931       .  S
C4098     Br4109   1.927       .  S
C4099      C4100   1.406       .  A
C4099      C4104   1.405       .  A
C4100      C4101   1.417       .  A
C4100     Br4111   1.934       .  S
C4101      C4102   1.430       .  A
C4101     Br4107   1.935       .  S
C4102      C4103   1.435       .  A
C4103      C4104   1.416       .  A
C4103     Br4112   1.936       .  S
C4104     Br4108   1.936       .  S
C4113      C4114   1.413       .  A
C4113      C4118   1.409       .  A
C4114      C4115   1.411       .  A
C4114     Br4126   1.931       .  S
C4115      C4116   1.410       .  A
C4115     Br4130   1.930       .  S
C4116      C4119   1.498       .  S
C4116      C4117   1.413       .  A
C4117      C4118   1.415       .  A
C4117     Br4125   1.927       .  S
C4118     Br4129   1.926       .  S
C4119      C4120   1.407       .  A
C4119      C4124   1.409       .  A
C4120      C4121   1.412       .  A
C4120     Br4131   1.930       .  S
C4121      C4122   1.417       .  A
C4121     Br4127   1.921       .  S
C4122      C4123   1.415       .  A
C4123      C4124   1.414       .  A
C4123     Br4132   1.919       .  S
C4124     Br4128   1.931       .  S
C4133      C4134   1.420       .  A
C4133      C4138   1.418       .  A
C4134      C4135   1.407       .  A
C4134     Br4146   1.932       .  S
C4135      C4136   1.405       .  A
C4135     Br4150   1.934       .  S
C4136      C4139   1.486       .  S
C4136      C4137   1.407       .  A
C4137      C4138   1.411       .  A
C4137     Br4145   1.930       .  S
C4138     Br4149   1.932       .  S
C4139      C4140   1.404       .  A
C4139      C4144   1.406       .  A
C4140      C4141   1.407       .  A
C4140     Br4151   1.932       .  S
C4141      C4142   1.419       .  A
C4141     Br4147   1.928       .  S
C4142      C4143   1.417       .  A
C4143      C4144   1.410       .  A
C4143     Br4152   1.923       .  S
C4144     Br4148   1.932       .  S
C4153      C4154   1.410       .  A
C4153      C4158   1.422       .  A
C4154      C4155   1.410       .  A
C4154     Br4166   1.927       .  S
C4155      C4156   1.411       .  A
C4155     Br4170   1.929       .  S
C4156      C4159   1.487       .  S
C4156      C4157   1.406       .  A
C4157      C4158   1.406       .  A
C4157     Br4165   1.932       .  S
C4158     Br4169   1.938       .  S
C4159      C4160   1.409       .  A
C4159      C4164   1.409       .  A
C4160      C4161   1.410       .  A
C4160     Br4171   1.930       .  S
C4161      C4162   1.414       .  A
C4161     Br4167   1.931       .  S
C4162      C4163   1.413       .  A
C4163      C4164   1.407       .  A
C4163     Br4172   1.931       .  S
C4164     Br4168   1.932       .  S
C4173      C4174   1.408       .  A
C4173      C4178   1.408       .  A
C4174      C4175   1.408       .  A
C4174     Br4186   1.930       .  S
C4175      C4176   1.410       .  A
C4175     Br4190   1.928       .  S
C4176      C4179   1.484       .  S
C4176      C4177   1.409       .  A
C4177      C4178   1.405       .  A
C4177     Br4185   1.931       .  S
C4178     Br4189   1.928       .  S
C4179      C4180   1.407       .  A
C4179      C4184   1.405       .  A
C4180      C4181   1.409       .  A
C4180     Br4191   1.931       .  S
C4181      C4182   1.415       .  A
C4181     Br4187   1.924       .  S
C4182      C4183   1.421       .  A
C4183      C4184   1.407       .  A
C4183     Br4192   1.936       .  S
C4184     Br4188   1.931       .  S
C4193      C4194   1.428       .  A
C4193      C4198   1.428       .  A
C4194      C4195   1.414       .  A
C4194     Br4206   1.935       .  S
C4195      C4196   1.406       .  A
C4195     Br4210   1.932       .  S
C4196      C4199   1.495       .  S
C4196      C4197   1.405       .  A
C4197      C4198   1.412       .  A
C4197     Br4205   1.934       .  S
C4198     Br4209   1.937       .  S
C4199      C4200   1.405       .  A
C4199      C4204   1.401       .  A
C4200      C4201   1.416       .  A
C4200     Br4211   1.931       .  S
C4201      C4202   1.429       .  A
C4201     Br4207   1.926       .  S
C4202      C4203   1.434       .  A
C4203      C4204   1.411       .  A
C4203     Br4212   1.930       .  S
C4204     Br4208   1.937       .  S
C4213      C4214   1.409       .  A
C4213      C4218   1.409       .  A
C4214      C4215   1.403       .  A
C4214     Br4226   1.926       .  S
C4215      C4216   1.409       .  A
C4215     Br4230   1.933       .  S
C4216      C4219   1.481       .  S
C4216      C4217   1.408       .  A
C4217      C4218   1.407       .  A
C4217     Br4225   1.928       .  S
C4218     Br4229   1.927       .  S
C4219      C4220   1.399       .  A
C4219      C4224   1.399       .  A
C4220      C4221   1.410       .  A
C4220     Br4231   1.937       .  S
C4221      C4222   1.438       .  A
C4221     Br4227   1.938       .  S
C4222      C4223   1.430       .  A
C4223      C4224   1.407       .  A
C4223     Br4232   1.921       .  S
C4224     Br4228   1.939       .  S
C4233      C4234   1.424       .  A
C4233      C4238   1.423       .  A
C4234      C4235   1.409       .  A
C4234     Br4246   1.923       .  S
C4235      C4236   1.403       .  A
C4235     Br4250   1.935       .  S
C4236      C4239   1.488       .  S
C4236      C4237   1.405       .  A
C4237      C4238   1.412       .  A
C4237     Br4245   1.932       .  S
C4238     Br4249   1.926       .  S
C4239      C4240   1.408       .  A
C4239      C4244   1.407       .  A
C4240      C4241   1.409       .  A
C4240     Br4251   1.930       .  S
C4241      C4242   1.415       .  A
C4241     Br4247   1.932       .  S
C4242      C4243   1.419       .  A
C4243      C4244   1.409       .  A
C4243     Br4252   1.932       .  S
C4244     Br4248   1.932       .  S
C4253      C4254   1.422       .  A
C4253      C4258   1.415       .  A
C4254      C4255   1.407       .  A
C4254     Br4266   1.936       .  S
C4255      C4256   1.405       .  A
C4255     Br4270   1.934       .  S
C4256      C4259   1.489       .  S
C4256      C4257   1.409       .  A
C4257      C4258   1.414       .  A
C4257     Br4265   1.929       .  S
C4258     Br4269   1.928       .  S
C4259      C4260   1.406       .  A
C4259      C4264   1.407       .  A
C4260      C4261   1.409       .  A
C4260     Br4271   1.931       .  S
C4261      C4262   1.418       .  A
C4261     Br4267   1.928       .  S
C4262      C4263   1.416       .  A
C4263      C4264   1.410       .  A
C4263     Br4272   1.923       .  S
C4264     Br4268   1.931       .  S
C4273      C4274   1.407       .  A
C4273      C4278   1.408       .  A
C4274      C4275   1.404       .  A
C4274     Br4286   1.930       .  S
C4275      C4276   1.409       .  A
C4275     Br4290   1.931       .  S
C4276      C4279   1.479       .  S
C4276      C4277   1.409       .  A
C4277      C4278   1.406       .  A
C4277     Br4285   1.928       .  S
C4278     Br4289   1.930       .  S
C4279      C4280   1.407       .  A
C4279      C4284   1.404       .  A
C4280      C4281   1.408       .  A
C4280     Br4291   1.931       .  S
C4281      C4282   1.413       .  A
C4281     Br4287   1.926       .  S
C4282      C4283   1.421       .  A
C4283      C4284   1.404       .  A
C4283     Br4292   1.937       .  S
C4284     Br4288   1.932       .  S
C4293      C4294   1.408       .  A
C4293      C4298   1.410       .  A
C4294      C4295   1.407       .  A
C4294     Br4306   1.927       .  S
C4295      C4296   1.410       .  A
C4295     Br4310   1.929       .  S
C4296      C4299   1.477       .  S
C4296      C4297   1.405       .  A
C4297      C4298   1.402       .  A
C4297     Br4305   1.930       .  S
C4298     Br4309   1.928       .  S
C4299      C4300   1.405       .  A
C4299      C4304   1.406       .  A
C4300      C4301   1.403       .  A
C4300     Br4311   1.931       .  S
C4301      C4302   1.419       .  A
C4301     Br4307   1.937       .  S
C4302      C4303   1.412       .  A
C4303      C4304   1.406       .  A
C4303     Br4312   1.921       .  S
C4304     Br4308   1.930       .  S
C4313      C4314   1.430       .  A
C4313      C4318   1.424       .  A
C4314      C4315   1.411       .  A
C4314     Br4326   1.937       .  S
C4315      C4316   1.404       .  A
C4315     Br4330   1.932       .  S
C4316      C4319   1.483       .  S
C4316      C4317   1.403       .  A
C4317      C4318   1.402       .  A
C4317     Br4325   1.936       .  S
C4318     Br4329   1.928       .  S
C4319      C4320   1.406       .  A
C4319      C4324   1.411       .  A
C4320      C4321   1.405       .  A
C4320     Br4331   1.930       .  S
C4321      C4322   1.416       .  A
C4321     Br4327   1.934   1_455  S
C4322      C4323   1.412       .  A
C4323      C4324   1.407       .  A
C4323     Br4332   1.931       .  S
C4324     Br4328   1.931       .  S
C4333      C4334   1.432       .  A
C4333      C4338   1.423       .  A
C4334      C4335   1.407       .  A
C4334     Br4346   1.932       .  S
C4335      C4336   1.401       .  A
C4335     Br4350   1.935       .  S
C4336      C4339   1.485       .  S
C4336      C4337   1.405       .  A
C4337      C4338   1.411       .  A
C4337     Br4345   1.933       .  S
C4338     Br4349   1.924       .  S
C4339      C4340   1.408       .  A
C4339      C4344   1.407       .  A
C4340      C4341   1.411       .  A
C4340     Br4351   1.929       .  S
C4341      C4342   1.417       .  A
C4341     Br4347   1.932       .  S
C4342      C4343   1.416       .  A
C4343      C4344   1.404       .  A
C4343     Br4352   1.935       .  S
C4344     Br4348   1.933       .  S
C4353      C4354   1.414       .  A
C4353      C4358   1.410       .  A
C4354      C4355   1.410       .  A
C4354     Br4366   1.933       .  S
C4355      C4356   1.410       .  A
C4355     Br4370   1.930       .  S
C4356      C4359   1.493       .  S
C4356      C4357   1.411       .  A
C4357      C4358   1.409       .  A
C4357     Br4365   1.928       .  S
C4358     Br4369   1.930       .  S
C4359      C4360   1.409       .  A
C4359      C4364   1.406       .  A
C4360      C4361   1.412       .  A
C4360     Br4371   1.931       .  S
C4361      C4362   1.420       .  A
C4361     Br4367   1.933       .  S
C4362      C4363   1.425       .  A
C4363      C4364   1.411       .  A
C4363     Br4372   1.934       .  S
C4364     Br4368   1.934       .  S
C4373      C4374   1.409       .  A
C4373      C4378   1.410       .  A
C4374      C4375   1.401       .  A
C4374     Br4386   1.929       .  S
C4375      C4376   1.407       .  A
C4375     Br4390   1.932       .  S
C4376      C4379   1.484       .  S
C4376      C4377   1.412       .  A
C4377      C4378   1.412       .  A
C4377     Br4385   1.927       .  S
C4378     Br4389   1.928       .  S
C4379      C4380   1.407       .  A
C4379      C4384   1.405       .  A
C4380      C4381   1.406       .  A
C4380     Br4391   1.934       .  S
C4381      C4382   1.413       .  A
C4381     Br4387   1.923       .  S
C4382      C4383   1.422       .  A
C4383      C4384   1.409       .  A
C4383     Br4392   1.936       .  S
C4384     Br4388   1.931       .  S
C4393      C4394   1.409       .  A
C4393      C4398   1.415       .  A
C4394      C4395   1.405       .  A
C4394     Br4406   1.924       .  S
C4395      C4396   1.408       .  A
C4395     Br4410   1.931       .  S
C4396      C4399   1.474       .  S
C4396      C4397   1.405       .  A
C4397      C4398   1.401       .  A
C4397     Br4405   1.932       .  S
C4398     Br4409   1.935       .  S
C4399      C4400   1.407       .  A
C4399      C4404   1.411       .  A
C4400      C4401   1.401       .  A
C4400     Br4411   1.931       .  S
C4401      C4402   1.408       .  A
C4401     Br4407   1.930       .  S
C4402      C4403   1.405       .  A
C4403      C4404   1.404       .  A
C4403     Br4412   1.930       .  S
C4404     Br4408   1.929       .  S
C4413      C4414   1.412       .  A
C4413      C4418   1.410       .  A
C4414      C4415   1.406       .  A
C4414     Br4426   1.925       .  S
C4415      C4416   1.408       .  A
C4415     Br4430   1.932       .  S
C4416      C4419   1.483       .  S
C4416      C4417   1.409       .  A
C4417      C4418   1.407       .  A
C4417     Br4425   1.930       .  S
C4418     Br4429   1.932       .  S
C4419      C4420   1.407       .  A
C4419      C4424   1.403       .  A
C4420      C4421   1.410       .  A
C4420     Br4431   1.932       .  S
C4421      C4422   1.418       .  A
C4421     Br4427   1.923       .  S
C4422      C4423   1.419       .  A
C4423      C4424   1.405       .  A
C4423     Br4432   1.922       .  S
C4424     Br4428   1.935       .  S
C4433      C4434   1.416       .  A
C4433      C4438   1.421       .  A
C4434      C4435   1.408       .  A
C4434     Br4446   1.933       .  S
C4435      C4436   1.407       .  A
C4435     Br4450   1.931       .  S
C4436      C4439   1.482       .  S
C4436      C4437   1.405       .  A
C4437      C4438   1.406       .  A
C4437     Br4445   1.932       .  S
C4438     Br4449   1.935       .  S
C4439      C4440   1.404       .  A
C4439      C4444   1.402       .  A
C4440      C4441   1.410       .  A
C4440     Br4451   1.931       .  S
C4441      C4442   1.423       .  A
C4441     Br4447   1.927       .  S
C4442      C4443   1.430       .  A
C4443      C4444   1.406       .  A
C4443     Br4452   1.939       .  S
C4444     Br4448   1.934       .  S
C4453      C4454   1.411       .  A
C4453      C4458   1.407       .  A
C4454      C4455   1.409       .  A
C4454     Br4466   1.927       .  S
C4455      C4456   1.407       .  A
C4455     Br4470   1.927       .  S
C4456      C4459   1.482       .  S
C4456      C4457   1.410       .  A
C4457      C4458   1.404       .  A
C4457     Br4465   1.933       .  S
C4458     Br4469   1.924       .  S
C4459      C4460   1.398       .  A
C4459      C4464   1.400       .  A
C4460      C4461   1.406       .  A
C4460     Br4471   1.936       .  S
C4461      C4462   1.435       .  A
C4461     Br4467   1.936       .  S
C4462      C4463   1.432       .  A
C4463      C4464   1.410       .  A
C4463     Br4472   1.924       .  S
C4464     Br4468   1.936       .  S
C4473      C4474   1.415       .  A
C4473      C4478   1.412       .  A
C4474      C4475   1.409       .  A
C4474     Br4486   1.929       .  S
C4475      C4476   1.409       .  A
C4475     Br4490   1.931       .  S
C4476      C4479   1.491       .  S
C4476      C4477   1.410       .  A
C4477      C4478   1.410       .  A
C4477     Br4485   1.928       .  S
C4478     Br4489   1.929       .  S
C4479      C4480   1.402       .  A
C4479      C4484   1.405       .  A
C4480      C4481   1.409       .  A
C4480     Br4491   1.936       .  S
C4481      C4482   1.430       .  A
C4481     Br4487   1.933       .  S
C4482      C4483   1.428       .  A
C4483      C4484   1.415       .  A
C4483     Br4492   1.927       .  S
C4484     Br4488   1.934       .  S
C4493      C4494   1.421       .  A
C4493      C4498   1.419       .  A
C4494      C4495   1.411       .  A
C4494     Br4506   1.934       .  S
C4495      C4496   1.406       .  A
C4495     Br4510   1.930       .  S
C4496      C4499   1.492       .  S
C4496      C4497   1.408       .  A
C4497      C4498   1.412       .  A
C4497     Br4505   1.932       .  S
C4498     Br4509   1.924       .  S
C4499      C4500   1.411       .  A
C4499      C4504   1.408       .  A
C4500      C4501   1.414       .  A
C4500     Br4511   1.928       .  S
C4501      C4502   1.414       .  A
C4501     Br4507   1.930       .  S
C4502      C4503   1.414       .  A
C4503      C4504   1.407       .  A
C4503     Br4512   1.933       .  S
C4504     Br4508   1.931       .  S
C4513      C4514   1.408       .  A
C4513      C4518   1.409       .  A
C4514      C4515   1.406       .  A
C4514     Br4526   1.932       .  S
C4515      C4516   1.410       .  A
C4515     Br4530   1.929       .  S
C4516      C4519   1.489       .  S
C4516      C4517   1.413       .  A
C4517      C4518   1.411       .  A
C4517     Br4525   1.930       .  S
C4518     Br4529   1.928       .  S
C4519      C4520   1.404       .  A
C4519      C4524   1.410       .  A
C4520      C4521   1.405       .  A
C4520     Br4531   1.934       .  S
C4521      C4522   1.420       .  A
C4521     Br4527   1.925       .  S
C4522      C4523   1.417       .  A
C4523      C4524   1.414       .  A
C4523     Br4532   1.924       .  S
C4524     Br4528   1.930       .  S
C4533      C4534   1.430       .  A
C4533      C4538   1.428       .  A
C4534      C4535   1.410       .  A
C4534     Br4546   1.932       .  S
C4535      C4536   1.402       .  A
C4535     Br4550   1.936       .  S
C4536      C4539   1.493       .  S
C4536      C4537   1.405       .  A
C4537      C4538   1.416       .  A
C4537     Br4545   1.933       .  S
C4538     Br4549   1.927       .  S
C4539      C4540   1.409       .  A
C4539      C4544   1.412       .  A
C4540      C4541   1.408       .  A
C4540     Br4551   1.931       .  S
C4541      C4542   1.414       .  A
C4541     Br4547   1.928       .  S
C4542      C4543   1.411       .  A
C4543      C4544   1.412       .  A
C4543     Br4552   1.927       .  S
C4544     Br4548   1.929       .  S
C4553      C4554   1.411       .  A
C4553      C4558   1.411       .  A
C4554      C4555   1.410       .  A
C4554     Br4566   1.929       .  S
C4555      C4556   1.410       .  A
C4555     Br4570   1.929       .  S
C4556      C4559   1.486       .  S
C4556      C4557   1.409       .  A
C4557      C4558   1.406       .  A
C4557     Br4565   1.931       .  S
C4558     Br4569   1.930       .  S
C4559      C4560   1.406       .  A
C4559      C4564   1.406       .  A
C4560      C4561   1.408       .  A
C4560     Br4571   1.930       .  S
C4561      C4562   1.422       .  A
C4561     Br4567   1.935       .  S
C4562      C4563   1.424       .  A
C4563      C4564   1.408       .  A
C4563     Br4572   1.937       .  S
C4564     Br4568   1.933       .  S
C4573      C4574   1.415       .  A
C4573      C4578   1.411       .  A
C4574      C4575   1.410       .  A
C4574     Br4586   1.928       .  S
C4575      C4576   1.408       .  A
C4575     Br4590   1.929       .  S
C4576      C4579   1.487       .  S
C4576      C4577   1.409       .  A
C4577      C4578   1.405       .  A
C4577     Br4585   1.931       .  S
C4578     Br4589   1.932       .  S
C4579      C4580   1.396       .  A
C4579      C4584   1.399       .  A
C4580      C4581   1.410       .  A
C4580     Br4591   1.940       .  S
C4581      C4582   1.443       .  A
C4581     Br4587   1.936       .  S
C4582      C4583   1.439       .  A
C4583      C4584   1.414       .  A
C4583     Br4592   1.926       .  S
C4584     Br4588   1.940       .  S
C4593      C4594   1.420       .  A
C4593      C4598   1.420       .  A
C4594      C4595   1.411       .  A
C4594     Br4606   1.917       .  S
C4595      C4596   1.405       .  A
C4595     Br4610   1.933       .  S
C4596      C4599   1.496       .  S
C4596      C4597   1.408       .  A
C4597      C4598   1.415       .  A
C4597     Br4605   1.931       .  S
C4598     Br4609   1.921       .  S
C4599      C4600   1.413       .  A
C4599      C4604   1.410       .  A
C4600      C4601   1.414       .  A
C4600     Br4611   1.927       .  S
C4601      C4602   1.409       .  A
C4601     Br4607   1.927       .  S
C4602      C4603   1.411       .  A
C4603      C4604   1.409       .  A
C4603     Br4612   1.931       .  S
C4604     Br4608   1.930       .  S
C4613      C4614   1.418       .  A
C4613      C4618   1.420       .  A
C4614      C4615   1.416       .  A
C4614     Br4626   1.931       .  S
C4615      C4616   1.410       .  A
C4615     Br4630   1.929       .  S
C4616      C4619   1.496       .  S
C4616      C4617   1.407       .  A
C4617      C4618   1.410       .  A
C4617     Br4625   1.933       .  S
C4618     Br4629   1.933       .  S
C4619      C4620   1.408       .  A
C4619      C4624   1.409       .  A
C4620      C4621   1.412       .  A
C4620     Br4631   1.931       .  S
C4621      C4622   1.421       .  A
C4621     Br4627   1.935       .  S
C4622      C4623   1.417       .  A
C4623      C4624   1.414       .  A
C4623     Br4632   1.926       .  S
C4624     Br4628   1.930       .  S
C4633      C4634   1.407       .  A
C4633      C4638   1.408       .  A
C4634      C4635   1.404       .  A
C4634     Br4646   1.930       .  S
C4635      C4636   1.408       .  A
C4635     Br4650   1.930       .  S
C4636      C4639   1.480       .  S
C4636      C4637   1.410       .  A
C4637      C4638   1.407       .  A
C4637     Br4645   1.928       .  S
C4638     Br4649   1.929       .  S
C4639      C4640   1.408       .  A
C4639      C4644   1.404       .  A
C4640      C4641   1.409       .  A
C4640     Br4651   1.929       .  S
C4641      C4642   1.413       .  A
C4641     Br4647   1.928       .  S
C4642      C4643   1.423       .  A
C4643      C4644   1.404       .  A
C4643     Br4652   1.938       .  S
C4644     Br4648   1.934       .  S
C4653      C4654   1.430       .  A
C4653      C4658   1.427       .  A
C4654      C4655   1.411       .  A
C4654     Br4666   1.935       .  S
C4655      C4656   1.402       .  A
C4655     Br4670   1.933       .  S
C4656      C4659   1.492       .  S
C4656      C4657   1.405       .  A
C4657      C4658   1.414       .  A
C4657     Br4665   1.935       .  S
C4658     Br4669   1.927       .  S
C4659      C4660   1.410       .  A
C4659      C4664   1.408       .  A
C4660      C4661   1.412       .  A
C4660     Br4671   1.930       .  S
C4661      C4662   1.415       .  A
C4661     Br4667   1.931       .  S
C4662      C4663   1.416       .  A
C4663      C4664   1.409       .  A
C4663     Br4672   1.932       .  S
C4664     Br4668   1.931       .  S
C4673      C4674   1.420       .  A
C4673      C4678   1.419       .  A
C4674      C4675   1.410       .  A
C4674     Br4686   1.932       .  S
C4675      C4676   1.406       .  A
C4675     Br4690   1.930       .  S
C4676      C4679   1.489       .  S
C4676      C4677   1.408       .  A
C4677      C4678   1.408       .  A
C4677     Br4685   1.934       .  S
C4678     Br4689   1.932       .  S
C4679      C4680   1.404       .  A
C4679      C4684   1.400       .  A
C4680      C4681   1.413       .  A
C4680     Br4691   1.934       .  S
C4681      C4682   1.433       .  A
C4681     Br4687   1.936       .  S
C4682      C4683   1.429       .  A
C4683      C4684   1.409       .  A
C4683     Br4692   1.921       .  S
C4684     Br4688   1.936       .  S
C4693      C4694   1.436       .  A
C4693      C4698   1.436       .  A
C4694      C4695   1.412       .  A
C4694     Br4706   1.938       .  S
C4695      C4696   1.401       .  A
C4695     Br4710   1.934       .  S
C4696      C4699   1.497       .  S
C4696      C4697   1.402       .  A
C4697      C4698   1.417       .  A
C4697     Br4705   1.937       .  S
C4698     Br4709   1.922       .  S
C4699      C4700   1.411       .  A
C4699      C4704   1.412       .  A
C4700      C4701   1.414       .  A
C4700     Br4711   1.927       .  S
C4701      C4702   1.412       .  A
C4701     Br4707   1.927       .  S
C4702      C4703   1.409       .  A
C4703      C4704   1.410       .  A
C4703     Br4712   1.925       .  S
C4704     Br4708   1.931       .  S
C4713      C4714   1.418       .  A
C4713      C4718   1.414       .  A
C4714      C4715   1.405       .  A
C4714     Br4726   1.935       .  S
C4715      C4716   1.405       .  A
C4715     Br4730   1.933       .  S
C4716      C4719   1.486       .  S
C4716      C4717   1.410       .  A
C4717      C4718   1.412       .  A
C4717     Br4725   1.929       .  S
C4718     Br4729   1.930       .  S
C4719      C4720   1.406       .  A
C4719      C4724   1.407       .  A
C4720      C4721   1.408       .  A
C4720     Br4731   1.931       .  S
C4721      C4722   1.420       .  A
C4721     Br4727   1.935       .  S
C4722      C4723   1.418       .  A
C4723      C4724   1.410       .  A
C4723     Br4732   1.925       .  S
C4724     Br4728   1.933       .  S
C4733      C4734   1.417       .  A
C4733      C4738   1.423       .  A
C4734      C4735   1.411       .  A
C4734     Br4746   1.931       .  S
C4735      C4736   1.408       .  A
C4735     Br4750   1.929       .  S
C4736      C4739   1.488       .  S
C4736      C4737   1.406       .  A
C4737      C4738   1.407       .  A
C4737     Br4745   1.934       .  S
C4738     Br4749   1.937       .  S
C4739      C4740   1.406       .  A
C4739      C4744   1.409       .  A
C4740      C4741   1.407       .  A
C4740     Br4751   1.932       .  S
C4741      C4742   1.417       .  A
C4741     Br4747   1.927       .  S
C4742      C4743   1.413       .  A
C4743      C4744   1.412       .  A
C4743     Br4752   1.921       .  S
C4744     Br4748   1.930       .  S
C4753      C4754   1.413       .  A
C4753      C4758   1.413       .  A
C4754      C4755   1.404       .  A
C4754     Br4766   1.929       .  S
C4755      C4756   1.406       .  A
C4755     Br4770   1.931       .  S
C4756      C4759   1.483       .  S
C4756      C4757   1.410       .  A
C4757      C4758   1.410       .  A
C4757     Br4765   1.929       .  S
C4758     Br4769   1.930       .  S
C4759      C4760   1.405       .  A
C4759      C4764   1.403       .  A
C4760      C4761   1.412       .  A
C4760     Br4771   1.932       .  S
C4761      C4762   1.424       .  A
C4761     Br4767   1.925       .  S
C4762      C4763   1.422       .  A
C4763      C4764   1.404       .  A
C4763     Br4772   1.928       .  S
C4764     Br4768   1.936       .  S
C4773      C4774   1.413       .  A
C4773      C4778   1.412       .  A
C4774      C4775   1.411       .  A
C4774     Br4786   1.929       .  S
C4775      C4776   1.412       .  A
C4775     Br4790   1.930       .  S
C4776      C4779   1.489       .  S
C4776      C4777   1.409       .  A
C4777      C4778   1.404       .  A
C4777     Br4785   1.933       .  S
C4778     Br4789   1.931       .  S
C4779      C4780   1.402       .  A
C4779      C4784   1.405       .  A
C4780      C4781   1.404       .  A
C4780     Br4791   1.937       .  S
C4781      C4782   1.430       .  A
C4781     Br4787   1.937       .  S
C4782      C4783   1.432       .  A
C4783      C4784   1.416       .  A
C4783     Br4792   1.930       .  S
C4784     Br4788   1.935       .  S
C4793      C4794   1.424       .  A
C4793      C4798   1.435       .  A
C4794      C4795   1.409       .  A
C4794     Br4806   1.924       .  S
C4795      C4796   1.403       .  A
C4795     Br4810   1.933       .  S
C4796      C4799   1.478       .  S
C4796      C4797   1.398       .  A
C4797      C4798   1.405       .  A
C4797     Br4805   1.938       .  S
C4798     Br4809   1.935       .  S
C4799      C4800   1.405       .  A
C4799      C4804   1.406       .  A
C4800      C4801   1.404       .  A
C4800     Br4811   1.931       .  S
C4801      C4802   1.415       .  A
C4801     Br4807   1.934       .  S
C4802      C4803   1.419       .  A
C4803      C4804   1.406       .  A
C4803     Br4812   1.935       .  S
C4804     Br4808   1.933       .  S
C4813      C4814   1.409       .  A
C4813      C4818   1.412       .  A
C4814      C4815   1.407       .  A
C4814     Br4826   1.930       .  S
C4815      C4816   1.411       .  A
C4815     Br4830   1.931       .  S
C4816      C4819   1.484       .  S
C4816      C4817   1.406       .  A
C4817      C4818   1.407       .  A
C4817     Br4825   1.929       .  S
C4818     Br4829   1.928       .  S
C4819      C4820   1.397       .  A
C4819      C4824   1.397       .  A
C4820      C4821   1.411       .  A
C4820     Br4831   1.938       .  S
C4821      C4822   1.438       .  A
C4821     Br4827   1.926       .  S
C4822      C4823   1.443       .  A
C4823      C4824   1.411       .  A
C4823     Br4832   1.940       .  S
C4824     Br4828   1.940       .  S
C4833      C4834   1.410       .  A
C4833      C4838   1.412       .  A
C4834      C4835   1.411       .  A
C4834     Br4846   1.928       .  S
C4835      C4836   1.411       .  A
C4835     Br4850   1.928       .  S
C4836      C4839   1.486       .  S
C4836      C4837   1.409       .  A
C4837      C4838   1.404       .  A
C4837     Br4845   1.933       .  S
C4838     Br4849   1.933       .  S
C4839      C4840   1.407       .  A
C4839      C4844   1.406       .  A
C4840      C4841   1.409       .  A
C4840     Br4851   1.933       .  S
C4841      C4842   1.415       .  A
C4841     Br4847   1.920       .  S
C4842      C4843   1.417       .  A
C4843      C4844   1.407       .  A
C4843     Br4852   1.927       .  S
C4844     Br4848   1.932       .  S
C4853      C4854   1.417       .  A
C4853      C4858   1.419       .  A
C4854      C4855   1.407       .  A
C4854     Br4866   1.924       .  S
C4855      C4856   1.407       .  A
C4855     Br4870   1.934       .  S
C4856      C4859   1.482       .  S
C4856      C4857   1.404       .  A
C4857      C4858   1.407       .  A
C4857     Br4865   1.932       .  S
C4858     Br4869   1.928       .  S
C4859      C4860   1.411       .  A
C4859      C4864   1.409       .  A
C4860      C4861   1.407       .  A
C4860     Br4871   1.929       .  S
C4861      C4862   1.408       .  A
C4861     Br4867   1.930       .  S
C4862      C4863   1.410       .  A
C4863      C4864   1.403       .  A
C4863     Br4872   1.934       .  S
C4864     Br4868   1.931       .  S
C4873      C4874   1.413       .  A
C4873      C4878   1.410       .  A
C4874      C4875   1.409       .  A
C4874     Br4886   1.931       .  S
C4875      C4876   1.409       .  A
C4875     Br4890   1.930       .  S
C4876      C4879   1.490       .  S
C4876      C4877   1.411       .  A
C4877      C4878   1.410       .  A
C4877     Br4885   1.929       .  S
C4878     Br4889   1.929       .  S
C4879      C4880   1.408       .  A
C4879      C4884   1.407       .  A
C4880      C4881   1.411       .  A
C4880     Br4891   1.931       .  S
C4881      C4882   1.416       .  A
C4881     Br4887   1.922       .  S
C4882      C4883   1.421       .  A
C4883      C4884   1.408       .  A
C4883     Br4892   1.937       .  S
C4884     Br4888   1.931       .  S
C4893      C4894   1.421       .  A
C4893      C4898   1.416       .  A
C4894      C4895   1.409       .  A
C4894     Br4906   1.921       .  S
C4895      C4896   1.405       .  A
C4895     Br4910   1.932       .  S
C4896      C4899   1.485       .  S
C4896      C4897   1.405       .  A
C4897      C4898   1.406       .  A
C4897     Br4905   1.934       .  S
C4898     Br4909   1.920       .  S
C4899      C4900   1.406       .  A
C4899      C4904   1.407       .  A
C4900      C4901   1.406       .  A
C4900     Br4911   1.934       .  S
C4901      C4902   1.421       .  A
C4901     Br4907   1.936       .  S
C4902      C4903   1.422       .  A
C4903      C4904   1.410       .  A
C4903     Br4912   1.933       .  S
C4904     Br4908   1.932       .  S
C4913      C4914   1.424       .  A
C4913      C4918   1.417       .  A
C4914      C4915   1.407       .  A
C4914     Br4926   1.929       .  S
C4915      C4916   1.405       .  A
C4915     Br4930   1.934       .  S
C4916      C4919   1.484       .  S
C4916      C4917   1.406       .  A
C4917      C4918   1.408       .  A
C4917     Br4925   1.929       .  S
C4918     Br4929   1.924       .  S
C4919      C4920   1.409       .  A
C4919      C4924   1.411       .  A
C4920      C4921   1.404       .  A
C4920     Br4931   1.931       .  S
C4921      C4922   1.408       .  A
C4921     Br4927   1.930   1_554  S
C4922      C4923   1.408       .  A
C4923      C4924   1.410       .  A
C4923     Br4932   1.929       .  S
C4924     Br4928   1.928       .  S
C4933      C4934   1.434       .  A
C4933      C4938   1.430       .  A
C4934      C4935   1.408       .  A
C4934     Br4946   1.933       .  S
C4935      C4936   1.401       .  A
C4935     Br4950   1.938       .  S
C4936      C4939   1.489       .  S
C4936      C4937   1.403       .  A
C4937      C4938   1.414       .  A
C4937     Br4945   1.932       .  S
C4938     Br4949   1.928       .  S
C4939      C4940   1.407       .  A
C4939      C4944   1.407       .  A
C4940      C4941   1.410       .  A
C4940     Br4951   1.931       .  S
C4941      C4942   1.420       .  A
C4941     Br4947   1.933   1_556  S
C4942      C4943   1.418       .  A
C4943      C4944   1.409       .  A
C4943     Br4952   1.933       .  S
C4944     Br4948   1.932       .  S
C4953      C4954   1.422       .  A
C4953      C4958   1.418       .  A
C4954      C4955   1.407       .  A
C4954     Br4966   1.934       .  S
C4955      C4956   1.405       .  A
C4955     Br4970   1.935       .  S
C4956      C4959   1.486       .  S
C4956      C4957   1.407       .  A
C4957      C4958   1.411       .  A
C4957     Br4965   1.929       .  S
C4958     Br4969   1.932       .  S
C4959      C4960   1.406       .  A
C4959      C4964   1.405       .  A
C4960      C4961   1.410       .  A
C4960     Br4971   1.932       .  S
C4961      C4962   1.417       .  A
C4961     Br4967   1.919       .  S
C4962      C4963   1.418       .  A
C4963      C4964   1.408       .  A
C4963     Br4972   1.925       .  S
C4964     Br4968   1.932       .  S
C4973      C4974   1.420       .  A
C4973      C4978   1.415       .  A
C4974      C4975   1.408       .  A
C4974     Br4986   1.935       .  S
C4975      C4976   1.405       .  A
C4975     Br4990   1.931       .  S
C4976      C4979   1.483       .  S
C4976      C4977   1.407       .  A
C4977      C4978   1.408       .  A
C4977     Br4985   1.933       .  S
C4978     Br4989   1.924       .  S
C4979      C4980   1.403       .  A
C4979      C4984   1.410       .  A
C4980      C4981   1.402       .  A
C4980     Br4991   1.934       .  S
C4981      C4982   1.411       .  A
C4981     Br4987   1.914       .  S
C4982      C4983   1.414       .  A
C4983      C4984   1.413       .  A
C4983     Br4992   1.929       .  S
C4984     Br4988   1.927       .  S
C4993      C4994   1.410       .  A
C4993      C4998   1.410       .  A
C4994      C4995   1.411       .  A
C4994     Br5006   1.929       .  S
C4995      C4996   1.412       .  A
C4995     Br5010   1.929       .  S
C4996      C4999   1.486       .  S
C4996      C4997   1.407       .  A
C4997      C4998   1.405       .  A
C4997     Br5005   1.931       .  S
C4998     Br5009   1.932       .  S
C4999      C5000   1.409       .  A
C4999      C5004   1.408       .  A
C5000      C5001   1.407       .  A
C5000     Br5011   1.930       .  S
C5001      C5002   1.413       .  A
C5001     Br5007   1.933       .  S
C5002      C5003   1.415       .  A
C5003      C5004   1.408       .  A
C5003     Br5012   1.930       .  S
C5004     Br5008   1.931       .  S
C5013      C5014   1.409       .  A
C5013      C5018   1.411       .  A
C5014      C5015   1.404       .  A
C5014     Br5026   1.910       .  S
C5015      C5016   1.407       .  A
C5015     Br5030   1.935       .  S
C5016      C5019   1.484       .  S
C5016      C5017   1.410       .  A
C5017      C5018   1.409       .  A
C5017     Br5025   1.929       .  S
C5018     Br5029   1.928       .  S
C5019      C5020   1.409       .  A
C5019      C5024   1.410       .  A
C5020      C5021   1.406       .  A
C5020     Br5031   1.931       .  S
C5021      C5022   1.416       .  A
C5021     Br5027   1.936       .  S
C5022      C5023   1.408       .  A
C5023      C5024   1.406       .  A
C5023     Br5032   1.928       .  S
C5024     Br5028   1.928       .  S
C5033      C5034   1.422       .  A
C5033      C5038   1.419       .  A
C5034      C5035   1.415       .  A
C5034     Br5046   1.932       .  S
C5035      C5036   1.409       .  A
C5035     Br5050   1.928       .  S
C5036      C5039   1.489       .  S
C5036      C5037   1.405       .  A
C5037      C5038   1.402       .  A
C5037     Br5045   1.935       .  S
C5038     Br5049   1.920       .  S
C5039      C5040   1.410       .  A
C5039      C5044   1.411       .  A
C5040      C5041   1.404       .  A
C5040     Br5051   1.931       .  S
C5041      C5042   1.410       .  A
C5041     Br5047   1.932       .  S
C5042      C5043   1.410       .  A
C5043      C5044   1.412       .  A
C5043     Br5052   1.928       .  S
C5044     Br5048   1.928       .  S
C5053      C5054   1.430       .  A
C5053      C5058   1.436       .  A
C5054      C5055   1.411       .  A
C5054     Br5066   1.921       .  S
C5055      C5056   1.402       .  A
C5055     Br5070   1.939       .  S
C5056      C5059   1.488       .  S
C5056      C5057   1.401       .  A
C5057      C5058   1.411       .  A
C5057     Br5065   1.934       .  S
C5058     Br5069   1.936       .  S
C5059      C5060   1.411       .  A
C5059      C5064   1.408       .  A
C5060      C5061   1.408       .  A
C5060     Br5071   1.930       .  S
C5061      C5062   1.409       .  A
C5061     Br5067   1.929       .  S
C5062      C5063   1.410       .  A
C5063      C5064   1.409       .  A
C5063     Br5072   1.922       .  S
C5064     Br5068   1.929       .  S
C5073      C5074   1.417       .  A
C5073      C5078   1.421       .  A
C5074      C5075   1.413       .  A
C5074     Br5086   1.931       .  S
C5075      C5076   1.409       .  A
C5075     Br5090   1.929       .  S
C5076      C5079   1.490       .  S
C5076      C5077   1.406       .  A
C5077      C5078   1.407       .  A
C5077     Br5085   1.934       .  S
C5078     Br5089   1.932       .  S
C5079      C5080   1.406       .  A
C5079      C5084   1.407       .  A
C5080      C5081   1.411       .  A
C5080     Br5091   1.931       .  S
C5081      C5082   1.420       .  A
C5081     Br5087   1.928       .  S
C5082      C5083   1.417       .  A
C5083      C5084   1.411       .  A
C5083     Br5092   1.920       .  S
C5084     Br5088   1.932       .  S
C5093      C5094   1.412       .  A
C5093      C5098   1.413       .  A
C5094      C5095   1.411       .  A
C5094     Br5106   1.929       .  S
C5095      C5096   1.410       .  A
C5095     Br5110   1.929       .  S
C5096      C5099   1.487       .  S
C5096      C5097   1.407       .  A
C5097      C5098   1.407       .  A
C5097     Br5105   1.931       .  S
C5098     Br5109   1.931       .  S
C5099      C5100   1.406       .  A
C5099      C5104   1.409       .  A
C5100      C5101   1.408       .  A
C5100     Br5111   1.930       .  S
C5101      C5102   1.419       .  A
C5101     Br5107   1.935       .  S
C5102      C5103   1.412       .  A
C5103      C5104   1.410       .  A
C5103     Br5112   1.925       .  S
C5104     Br5108   1.931       .  S
C5113      C5114   1.416       .  A
C5113      C5118   1.409       .  A
C5114      C5115   1.404       .  A
C5114     Br5126   1.935       .  S
C5115      C5116   1.408       .  A
C5115     Br5130   1.932       .  S
C5116      C5119   1.486       .  S
C5116      C5117   1.411       .  A
C5117      C5118   1.410       .  A
C5117     Br5125   1.930       .  S
C5118     Br5129   1.924       .  S
C5119      C5120   1.413       .  A
C5119      C5124   1.409       .  A
C5120      C5121   1.409       .  A
C5120     Br5131   1.931       .  S
C5121      C5122   1.407       .  A
C5121     Br5127   1.929       .  S
C5122      C5123   1.409       .  A
C5123      C5124   1.406       .  A
C5123     Br5132   1.929       .  S
C5124     Br5128   1.929       .  S
C5133      C5134   1.419       .  A
C5133      C5138   1.413       .  A
C5134      C5135   1.409       .  A
C5134     Br5146   1.935       .  S
C5135      C5136   1.408       .  A
C5135     Br5150   1.931       .  S
C5136      C5139   1.489       .  S
C5136      C5137   1.407       .  A
C5137      C5138   1.408       .  A
C5137     Br5145   1.932       .  S
C5138     Br5149   1.919       .  S
C5139      C5140   1.406       .  A
C5139      C5144   1.409       .  A
C5140      C5141   1.406       .  A
C5140     Br5151   1.934       .  S
C5141      C5142   1.419       .  A
C5141     Br5147   1.933       .  S
C5142      C5143   1.421       .  A
C5143      C5144   1.413       .  A
C5143     Br5152   1.933       .  S
C5144     Br5148   1.932       .  S
