geometry optimzed in LAMMPS
_audit_creation_date              2020-11-30 
_audit_creation_method            'lammps2cif' 
_symmetry_space_group_name_H-M    'P1' 
_symmetry_Int_Tables_number       1 
_symmetry_cell_setting            triclinic 
loop_ 
_symmetry_equiv_pos_as_xyz 
  x,y,z 
_cell_length_a                    45.9422961 
_cell_length_b                    17.60827961656411 
_cell_length_c                    41.1225190775032 
_cell_angle_alpha                 89.77556373861023 
_cell_angle_beta                  90.66828299811438 
_cell_angle_gamma                 90.78768918915095 
loop_ 
_atom_site_label 
_atom_site_type_symbol 
_atom_site_fract_x 
_atom_site_fract_y 
_atom_site_fract_z 
_atom_site_charge 
C1          C  0.03335124  0.20553959  0.08682958     0.80300
N2          N  0.04457843  0.21483700  0.05644206    -0.78100
C3          C  0.03741166  0.16507579  0.03233275     0.82700
N4          N  0.01911597  0.10599855  0.03887847    -0.78000
C5          C  0.00780472  0.09588240  0.06895925     0.82800
N6          N  0.01554176  0.14472169  0.09318026    -0.79700
O7          O  0.97354489  0.86062476  0.00544444    -0.78500
C8          C  0.88594007  0.88454267  0.02649552     0.82600
O9          O  0.98952919  0.99387981  0.10214220    -0.79600
O10         O  0.89046619  0.89811549  0.11249043    -0.81100
O11         O  0.93295762  0.66452960  0.06779005    -0.80900
O12         O  0.99052522  0.75063800  0.02501427    -0.79500
Zn13       Zn  0.94991225  0.91123149  0.03998596     1.55700
O14         O  0.90642557  0.71832522  0.10547585    -0.80900
Cd15       Cd  0.96769509  0.74549122  0.06981078     1.59700
Cd16       Cd  0.96356190  0.90094533  0.11728584     1.59600
O17         O  0.99213621  0.71982962  0.11177070    -0.80900
O18         O  0.95066685  0.84735110  0.07734721    -1.91400
Cd19       Cd  0.91043954  0.82165674  0.08467951     1.59900
O20         O  0.98406593  0.81652822  0.14609694    -0.80800
O21         O  0.88852084  0.82233838  0.04183918    -0.79500
C22         C  0.98882048  0.02908630  0.07477110     0.83100
C23         C  0.98915970  0.80163900  0.00264299     0.82700
O24         O  0.90729535  0.93191842  0.02507427    -0.78400
C25         C  0.91088485  0.66342411  0.08656140     0.83500
O26         O  0.97304258  0.00605226  0.05090568    -0.78500
C27         C  0.99394625  0.75007895  0.14008040     0.83600
C28         C  0.89988920  0.94154267  0.13471498     0.84000
O29         O  0.92722537  0.94736059  0.14092242    -0.81000
C30         C  0.77770835  0.42864803  0.01029315     0.03200
C31         C  0.79463750  0.41068290  0.48497116    -0.13000
C32         C  0.82471727  0.42336526  0.48323807     0.00700
C33         C  0.83998523  0.44679185  0.51098203    -0.11500
C34         C  0.82332113  0.46956885  0.03672393     0.03200
C35         C  0.79293490  0.45762750  0.03780938    -0.10900
H36         H  0.78252625  0.39532076  0.46324429     0.08800
H37         H  0.86288407  0.46169272  0.50885493     0.06300
H38         H  0.78115045  0.47169284  0.05956699     0.06100
C39         C  0.00622931  0.70389118  0.16712498     0.80300
N40         N  0.02396776  0.64422318  0.16057678    -0.78100
C41         C  0.03316252  0.59753834  0.18502377     0.82700
N42         N  0.02340848  0.60874107  0.21562525    -0.78000
C43         C  0.00519574  0.66634618  0.22249113     0.82800
N44         N  0.99650793  0.71382818  0.19810370    -0.79700
O45         O  0.06786216  0.35826573  0.24765838    -0.78500
C46         C  0.15426597  0.37872953  0.22406129     0.82600
O47         O  0.05011098  0.49592925  0.15168319    -0.79600
O48         O  0.14810014  0.40067342  0.14005963    -0.81100
O49         O  0.10584109  0.16538159  0.18317859    -0.80900
O50         O  0.05006430  0.24734604  0.22902803    -0.79500
Zn51       Zn  0.09066816  0.41156359  0.21262405     1.55700
O52         O  0.13041228  0.22185012  0.14399671    -0.80900
Cd53       Cd  0.07154827  0.24551754  0.18343793     1.59700
Cd54       Cd  0.07535146  0.40417659  0.13617674     1.59600
O55         O  0.04642583  0.22142865  0.14210656    -0.80900
O56         O  0.08817654  0.34871138  0.17549226    -1.91400
Cd57       Cd  0.12762343  0.32209682  0.16680922     1.59900
O58         O  0.05465775  0.31957732  0.10779669    -0.80800
O59         O  0.14958648  0.31658473  0.20938565    -0.79500
C60         C  0.05164164  0.53086641  0.17897450     0.83100
C61         C  0.05231380  0.29824407  0.25124682     0.82700
O62         O  0.13428577  0.42866270  0.22575936    -0.78400
C63         C  0.12669260  0.16571488  0.16273776     0.83500
O64         O  0.06778027  0.50750558  0.20247028    -0.78500
C65         C  0.04481396  0.25239035  0.11386866     0.83600
C66         C  0.13894549  0.44533009  0.11821835     0.84000
O67         O  0.11170706  0.45210535  0.11216164    -0.81000
C68         C  0.25995988  0.94229201  0.23407699     0.03200
C69         C  0.24350447  0.96293560  0.20618623    -0.13000
C70         C  0.21338924  0.97511543  0.20866881     0.00700
C71         C  0.20000512  0.96432532  0.23860575    -0.11500
C72         C  0.21580843  0.94410107  0.26626988     0.03200
C73         C  0.24581250  0.93271915  0.26403332    -0.10900
H74         H  0.25392220  0.97005830  0.18288827     0.08800
H75         H  0.17719638  0.97824508  0.24107701     0.06300
H76         H  0.25826938  0.91871999  0.28573196     0.06100
C77         C  0.03381993  0.25728623  0.33711804     0.80300
N78         N  0.01641187  0.31764148  0.34323441    -0.78100
C79         C  0.00764477  0.36410360  0.31860156     0.82700
N80         N  0.01756237  0.35201601  0.28812408    -0.78000
C81         C  0.03555880  0.29353466  0.28163067     0.82800
N82         N  0.04376819  0.24622885  0.30629618    -0.79700
O83         O  0.90534895  0.53406963  0.28201952    -0.78500
C84         C  0.98932296  0.66192247  0.25343063     0.82600
O85         O  0.99271347  0.46731968  0.35192654    -0.79600
O86         O  0.99845347  0.74084725  0.36407466    -0.81100
O87         O  0.91508533  0.74980376  0.35994039    -0.80900
O88         O  0.89100336  0.64585259  0.29938573    -0.79500
Zn89       Zn  0.94998388  0.55208547  0.29287131     1.55700
O90         O  0.94031642  0.79869723  0.31950653    -0.80900
Cd91       Cd  0.91588019  0.64547013  0.34016779     1.59700
Cd92       Cd  0.96855215  0.55915079  0.36902065     1.59600
O93         O  0.89648332  0.57046530  0.36956159    -0.80900
O94         O  0.95474263  0.61521388  0.33011454    -1.91400
Cd95       Cd  0.97355488  0.71602622  0.32211255     1.59900
O96         O  0.93285531  0.50949618  0.39338339    -0.80800
O97         O  0.99452076  0.70924823  0.27655063    -0.79500
C98         C  0.98995301  0.43202005  0.32480004     0.83100
C99         C  0.88534357  0.58369201  0.28506575     0.82700
O100        O  0.97173660  0.60550264  0.25658843    -0.78400
C101        C  0.91898728  0.80192328  0.33918696     0.83500
O102        O  0.97311423  0.45552611  0.30193415    -0.78500
C103        C  0.90561748  0.52070242  0.38931342     0.83600
C104        C  0.99968470  0.71019540  0.39243726     0.84000
O105        O  0.98967462  0.64292452  0.39821760    -0.81000
C106        C  0.78268195  0.02932164  0.26804991     0.03200
C107        C  0.79630228  0.04556340  0.23821114    -0.13000
C108        C  0.82641164  0.03579959  0.23482892     0.00700
C109        C  0.84256319  0.00870374  0.26120727    -0.11500
C110        C  0.82967820  0.99034319  0.29074591     0.03200
C111        C  0.79951073  0.00108748  0.29435552    -0.10900
H112        H  0.78337647  0.06387876  0.21749206     0.08800
H113        H  0.86529270  0.99512789  0.25782508     0.06300
H114        H  0.78913294  0.98661080  0.31710017     0.06100
C115        C  0.01057092  0.75783602  0.41988215     0.80300
N116        N  0.02880648  0.81822647  0.41399940    -0.78100
C117        C  0.03570872  0.86845977  0.43811462     0.82700
N118        N  0.02297466  0.86031382  0.46759111    -0.78000
C119        C  0.00420004  0.80180099  0.47369723     0.82800
N120        N  0.99806444  0.75047590  0.44976746    -0.79700
O121        O  0.13821857  0.04216796  0.47686754    -0.78500
C122        C  0.05342574  0.16294060  0.50198602     0.82600
O123        O  0.05240500  0.97189618  0.40494646    -0.79600
O124        O  0.04845469  0.24521577  0.39241450    -0.81100
O125        O  0.13352280  0.26499109  0.40090582    -0.80900
O126        O  0.15684021  0.14955150  0.45693296    -0.79500
Zn127      Zn  0.09434742  0.05811195  0.46434140     1.55700
O128        O  0.10512931  0.30765604  0.43949051    -0.80900
Cd129      Cd  0.13100450  0.15618105  0.41685594     1.59700
Cd130      Cd  0.07703033  0.06568560  0.38859323     1.59600
O131        O  0.14907272  0.08704221  0.38420448    -0.80900
O132        O  0.09172148  0.12272780  0.42704050    -1.91400
Cd133      Cd  0.07254059  0.22143957  0.43485639     1.59900
O134        O  0.11200222  0.02119464  0.36307906    -0.80800
O135        O  0.04947081  0.21093097  0.47884833    -0.79500
C136        C  0.05443293  0.93622094  0.43207613     0.83100
C137        C  0.15962415  0.08900945  0.47335913     0.82700
O138        O  0.07121704  0.10807536  0.49977172    -0.78400
C139        C  0.12749255  0.31559206  0.42142642     0.83500
O140        O  0.07115971  0.95985242  0.45514583    -0.78500
C141        C  0.13920906  0.03656859  0.36497819     0.83600
C142        C  0.04603940  0.21283579  0.36458416     0.84000
O143        O  0.05543686  0.14576443  0.35930409    -0.81000
C144        C  0.25710302  0.56320418  0.49545228     0.03200
C145        C  0.24601219  0.57603803  0.02395475    -0.13000
C146        C  0.21561535  0.57252801  0.02665521     0.00700
C147        C  0.19864499  0.55375427  0.99947058    -0.11500
C148        C  0.20856750  0.53326755  0.47259507     0.03200
C149        C  0.23909097  0.53858217  0.46922970    -0.10900
H150        H  0.25925335  0.58681015  0.04547313     0.08800
H151        H  0.17560742  0.54364242  0.00304580     0.06300
H152        H  0.24885344  0.52088401  0.44669877     0.06100
C153        C  0.50518865  0.69223813  0.08903184     0.80300
N154        N  0.49493826  0.70294143  0.05803961    -0.78100
C155        C  0.50301416  0.65591876  0.03367277     0.82700
N156        N  0.52134463  0.59817010  0.04051526    -0.78000
C157        C  0.53180427  0.58644149  0.07109485     0.82800
N158        N  0.52311239  0.63254215  0.09562668    -0.79700
O159        O  0.63353893  0.43286466  0.02754809    -0.78500
C160        C  0.55242333  0.29480213  0.00297847     0.82600
O161        O  0.54993702  0.48304959  0.10350911    -0.79600
O162        O  0.54980622  0.20673117  0.11165535    -0.81100
O163        O  0.63721982  0.21480219  0.10479572    -0.80900
O164        O  0.65232307  0.32406884  0.04386864    -0.79500
Zn165      Zn  0.59086889  0.40774999  0.04213713     1.55700
O166        O  0.60938832  0.15998934  0.06722130    -0.80900
Cd167      Cd  0.63075794  0.31918649  0.08624867     1.59700
Cd168      Cd  0.57638229  0.39182744  0.11811894     1.59600
O169        O  0.64959758  0.39679660  0.11558946    -0.80900
O170        O  0.59022988  0.34045808  0.07856925    -1.91400
Cd171      Cd  0.57391865  0.23668539  0.07006745     1.59900
O172        O  0.61211363  0.44152521  0.14291911    -0.80800
O173        O  0.55104187  0.24229292  0.02473500    -0.79500
C174        C  0.55093732  0.52058845  0.07676221     0.83100
C175        C  0.65476246  0.38639319  0.02863331     0.82700
O176        O  0.56758365  0.35537543  0.00700848    -0.78400
C177        C  0.63237283  0.16080103  0.08522759     0.83500
O178        O  0.56711188  0.50045785  0.05328063    -0.78500
C179        C  0.63944734  0.43897749  0.13749340     0.83600
C180        C  0.54735952  0.23725531  0.13980138     0.84000
O181        O  0.55639025  0.30515295  0.14596566    -0.81000
C182        C  0.76295775  0.92465485  0.00943768     0.03200
C183        C  0.74883575  0.96064973  0.03557036    -0.13000
C184        C  0.71832417  0.96811661  0.03508831     0.00700
C185        C  0.69701817  0.91443607  0.50255957    -0.11500
C186        C  0.71208941  0.88334145  0.47654091     0.03200
C187        C  0.74254923  0.87733063  0.47884874    -0.10900
H188        H  0.76144129  0.98305733  0.05587040     0.08800
H189        H  0.67385007  0.92414621  0.50000178     0.06300
H190        H  0.75452251  0.85520814  0.45849244     0.06100
C191        C  0.53552077  0.19035988  0.16676720     0.80300
N192        N  0.51720679  0.13029922  0.16043664    -0.78100
C193        C  0.50834151  0.08365968  0.18504053     0.82700
N194        N  0.51907594  0.09507573  0.21557818    -0.78000
C195        C  0.53788607  0.15335505  0.22215162     0.82800
N196        N  0.54605399  0.20095793  0.19764541    -0.79700
O197        O  0.40328972  0.92449907  0.22212845    -0.78500
C198        C  0.48437345  0.79785968  0.25248128     0.82600
O199        O  0.49173214  0.97784978  0.15320490    -0.79600
O200        O  0.49139829  0.70880132  0.14421994    -0.81100
O201        O  0.40342578  0.70183106  0.14730723    -0.80900
O202        O  0.38337293  0.81694583  0.20400218    -0.79500
Zn203      Zn  0.44642414  0.90380955  0.21080148     1.55700
O204        O  0.43147367  0.65257678  0.18597244    -0.80900
Cd205      Cd  0.40842794  0.80921483  0.16396075     1.59700
Cd206      Cd  0.46419559  0.89001713  0.13690874     1.59600
O207        O  0.39166622  0.88682802  0.13306661    -0.80900
O208        O  0.44837958  0.83581528  0.17506362    -1.91400
Cd209      Cd  0.46577585  0.73539459  0.18476058     1.59900
O210        O  0.43022036  0.94714130  0.11306619    -0.80800
O211        O  0.48713361  0.74578522  0.23093436    -0.79500
C212        C  0.48892946  0.01739346  0.17900394     0.83100
C213        C  0.38142294  0.87891875  0.21936539     0.82700
O214        O  0.46839311  0.85564874  0.24776908    -0.78400
C215        C  0.40914390  0.64834797  0.16697959     0.83500
O216        O  0.47055083  0.99914804  0.20092686    -0.78500
C217        C  0.40265267  0.93940303  0.11580635     0.83600
C218        C  0.49331251  0.73853909  0.11573072     0.84000
O219        O  0.48360216  0.80493617  0.10897320    -0.81000
C220        C  0.27860814  0.40153209  0.23890951     0.03200
C221        C  0.29329600  0.38413556  0.26814511    -0.13000
C222        C  0.32330694  0.39681723  0.27120952     0.00700
C223        C  0.33896572  0.42166221  0.24427095    -0.11500
C224        C  0.32524297  0.43988051  0.21488053     0.03200
C225        C  0.29477796  0.42959119  0.21217465    -0.10900
H226        H  0.28110680  0.36615026  0.28921686     0.08800
H227        H  0.36189155  0.43559004  0.24744931     0.06300
H228        H  0.28363283  0.44513721  0.18982668     0.06100
C229        C  0.53334404  0.25898958  0.41709383     0.80300
N230        N  0.51471552  0.31738515  0.41052219    -0.78100
C231        C  0.50577683  0.36364753  0.43499278     0.82700
N232        N  0.51683024  0.35369545  0.46543229    -0.78000
C233        C  0.53591956  0.29754145  0.47220527     0.82800
N234        N  0.54411750  0.25021717  0.44796686    -0.79700
O235        O  0.46872217  0.59345710  0.49895912    -0.78500
C236        C  0.38055406  0.57373916  0.47220290     0.82600
O237        O  0.48914448  0.46924769  0.40311973    -0.79600
O238        O  0.39065241  0.56237564  0.38472213    -0.81100
O239        O  0.43126902  0.79281350  0.43725933    -0.80900
O240        O  0.48677942  0.70530579  0.48156935    -0.79500
Zn241      Zn  0.44536561  0.54337752  0.46259137     1.55700
O242        O  0.40517127  0.74413711  0.39676166    -0.80900
Cd243      Cd  0.46521180  0.71286850  0.43569011     1.59700
Cd244      Cd  0.46283394  0.55922086  0.38754675     1.59600
O245        O  0.48966063  0.74343505  0.39456060    -0.80900
O246        O  0.44791202  0.61098618  0.42641749    -1.91400
Cd247      Cd  0.40852452  0.63821068  0.41528421     1.59900
O248        O  0.48223893  0.64637548  0.35978449    -0.80800
O249        O  0.38360275  0.63354114  0.45528962    -0.79500
C250        C  0.48647273  0.42939833  0.42908391     0.83100
C251        C  0.48447478  0.65306128  0.50332863     0.82700
O252        O  0.40137871  0.52617041  0.47542406    -0.78400
C253        C  0.41007719  0.79709128  0.41687168     0.83500
O254        O  0.46876647  0.44768087  0.45159347    -0.78500
C255        C  0.49143664  0.71396541  0.36614531     0.83600
C256        C  0.40091998  0.51418519  0.36534092     0.84000
O257        O  0.42833472  0.50673923  0.36210961    -0.81000
C258        C  0.28309266  0.04603009  0.48724916     0.03200
C259        C  0.29834880  0.01825928  0.46017082    -0.13000
C260        C  0.32840905  0.00466177  0.46257819     0.00700
C261        C  0.34198139  0.02170486  0.99554670    -0.11500
C262        C  0.32763690  0.05267585  0.02206897     0.03200
C263        C  0.29728792  0.06011573  0.02046575    -0.10900
H264        H  0.28678356  0.00515389  0.43777858     0.08800
H265        H  0.36501333  0.00972074  0.99763575     0.06300
H266        H  0.28585333  0.08167213  0.04132331     0.06100
C267        C  0.50284392  0.76135694  0.33913333     0.80300
N268        N  0.52105966  0.82172080  0.34527692    -0.78100
C269        C  0.53009681  0.86759004  0.32047866     0.82700
N270        N  0.51958496  0.85505889  0.28992323    -0.78000
C271        C  0.50083604  0.79647466  0.28352382     0.82800
N272        N  0.49248712  0.74973895  0.30824717    -0.79700
O273        O  0.57123354  0.09479670  0.25734806    -0.78500
C274        C  0.65901530  0.07463817  0.28754224     0.82600
O275        O  0.54680721  0.97385229  0.35194813    -0.79600
O276        O  0.64738879  0.06505349  0.37145469    -0.81100
O277        O  0.60636153  0.29770927  0.31899801    -0.80900
O278        O  0.55094670  0.20222630  0.27506372    -0.79500
Zn279      Zn  0.59340863  0.04602824  0.29454332     1.55700
O280        O  0.63380295  0.25061697  0.35860194    -0.80900
Cd281      Cd  0.57234864  0.21428448  0.32094754     1.59700
Cd282      Cd  0.57472355  0.06053576  0.36854161     1.59600
O283        O  0.54689724  0.24129354  0.36173917    -0.80900
O284        O  0.59023356  0.11442463  0.33025861    -1.91400
Cd285      Cd  0.62979796  0.14312798  0.34164521     1.59900
O286        O  0.55554891  0.14614212  0.39717414    -0.80800
O287        O  0.65502014  0.13726246  0.30184545    -0.79500
C288        C  0.54973574  0.93368922  0.32632645     0.83100
C289        C  0.55444214  0.15140981  0.25312799     0.82700
O290        O  0.63784407  0.02663530  0.28423864    -0.78400
C291        C  0.62836243  0.30322403  0.33838344     0.83500
O292        O  0.56855397  0.95082177  0.30461199    -0.78500
C293        C  0.54538310  0.21221263  0.39038846     0.83600
C294        C  0.63682416  0.00989202  0.38748618     0.84000
O295        O  0.60929416  0.00109330  0.39047459    -0.81000
C296        C  0.76036431  0.54833681  0.26803270     0.03200
C297        C  0.74399520  0.52273700  0.29496534    -0.13000
C298        C  0.71356492  0.51123915  0.29191900     0.00700
C299        C  0.69994494  0.52902189  0.26236957    -0.11500
C300        C  0.71584852  0.55119792  0.23522284     0.03200
C301        C  0.74607607  0.56194380  0.23817673    -0.10900
H302        H  0.75503630  0.51012429  0.31768406     0.08800
H303        H  0.67693880  0.51598024  0.25918053     0.06300
H304        H  0.75864448  0.57684529  0.21688576     0.06100
C305        C  0.67996852  0.34060338  0.33270848    -0.26300
C306        C  0.65084121  0.36360644  0.33431753    -0.14400
C307        C  0.64448118  0.44102433  0.32983013     0.36300
C308        C  0.66691810  0.49217133  0.32142499    -0.25700
C309        C  0.69546744  0.46701029  0.31547442    -0.15000
C310        C  0.70211761  0.39058352  0.32291900     0.37400
N311        N  0.73049146  0.35999868  0.31824214    -0.89200
H312        H  0.68530079  0.28141165  0.33655940     0.18500
H313        H  0.66137033  0.55059068  0.31609493     0.18500
N314        N  0.61552392  0.46891182  0.33301083    -0.88200
H315        H  0.74527096  0.38850818  0.33351199     0.35800
H316        H  0.73650303  0.36778703  0.29401369     0.40900
H317        H  0.60806824  0.45437028  0.35617170     0.40600
H318        H  0.60209987  0.44221744  0.31572237     0.35400
C319        C  0.35887445  0.83177128  0.42350839    -0.26300
C320        C  0.38787768  0.85617089  0.41980587    -0.14400
C321        C  0.39470721  0.93414274  0.42191519     0.36300
C322        C  0.37293341  0.98512561  0.43037870    -0.25700
C323        C  0.34480279  0.95912536  0.43878039    -0.15000
C324        C  0.33747377  0.88173922  0.43361946     0.37400
N325        N  0.30939581  0.85059548  0.44126019    -0.89200
H326        H  0.35331005  0.77190173  0.42145099     0.18500
H327        H  0.37888764  0.04426965  0.43409651     0.18500
N328        N  0.42359872  0.96263188  0.41652346    -0.88200
H329        H  0.29381687  0.87725636  0.42668787     0.35800
H330        H  0.30974995  0.84950706  0.97945971     0.40900
H331        H  0.42997736  0.94575898  0.39335876     0.40600
H332        H  0.43763145  0.93826745  0.43367850     0.35400
C333        C  0.35029623  0.49047291  0.34666613    -0.26300
C334        C  0.37963763  0.46867765  0.34608806    -0.14400
C335        C  0.38747642  0.40689915  0.32654111     0.36300
C336        C  0.36652575  0.37336342  0.30585335    -0.25700
C337        C  0.33832535  0.40326824  0.30306211    -0.15000
C338        C  0.32979425  0.45962234  0.32526061     0.37400
N339        N  0.30132335  0.49192609  0.32491988    -0.89200
H340        H  0.34336312  0.53612090  0.36225770     0.18500
H341        H  0.37327082  0.32978009  0.28909428     0.18500
N342        N  0.41677455  0.38020717  0.32642199    -0.88200
H343        H  0.28604512  0.44945857  0.33033800     0.35800
H344        H  0.29692286  0.51500869  0.30195685     0.40900
H345        H  0.42460311  0.38508653  0.30271510     0.40600
H346        H  0.41636860  0.32260973  0.33268869     0.35400
C347        C  0.39304430  0.04315100  0.07533477    -0.26300
C348        C  0.38239806  0.99080059  0.09828779    -0.14400
C349        C  0.35189550  0.98512745  0.10283547     0.36300
C350        C  0.33303941  0.01757586  0.07995940    -0.25700
C351        C  0.34411805  0.05749574  0.05323499    -0.15000
C352        C  0.37388937  0.07879223  0.05337749     0.37400
N353        N  0.38471316  0.13065050  0.02914624    -0.89200
H354        H  0.41627663  0.05277367  0.07314488     0.18500
H355        H  0.31001964  0.00391706  0.08129964     0.18500
N356        N  0.33985318  0.94345427  0.12963400    -0.88200
H357        H  0.40713407  0.13948409  0.03221592     0.35800
H358        H  0.37490674  0.18299785  0.03303208     0.40900
H359        H  0.32649492  0.89992579  0.12037907     0.40600
H360        H  0.32685707  0.98021551  0.14289932     0.35400
C361        C  0.35752951  0.60853885  0.17158890    -0.26300
C362        C  0.38692167  0.58726362  0.17067415    -0.14400
C363        C  0.39409518  0.51092202  0.17620640     0.36300
C364        C  0.37206811  0.45909948  0.18559151    -0.25700
C365        C  0.34330115  0.48310892  0.19101020    -0.15000
C366        C  0.33580075  0.55764309  0.18204547     0.37400
N367        N  0.30674204  0.58408519  0.18621058    -0.89200
H368        H  0.35165622  0.66700777  0.16684639     0.18500
H369        H  0.37792439  0.40143001  0.19190249     0.18500
N370        N  0.42373725  0.48706275  0.17343008    -0.88200
H371        H  0.29914133  0.60389132  0.16370490     0.35800
H372        H  0.30746400  0.62987926  0.20232412     0.40900
H373        H  0.42973066  0.49447183  0.14915390     0.40600
H374        H  0.42537719  0.42904002  0.17848734     0.35400
C375        C  0.70711896  0.92726194  0.42001434    -0.26300
C376        C  0.69631780  0.88068923  0.44486686    -0.14400
C377        C  0.66669014  0.85801452  0.44367338     0.36300
C378        C  0.64729679  0.89773883  0.42332233    -0.25700
C379        C  0.65754791  0.95625338  0.40299617    -0.15000
C380        C  0.68804830  0.96467248  0.39883005     0.37400
N381        N  0.69988330  0.01401436  0.37435651    -0.89200
H382        H  0.73004070  0.94250958  0.41946091     0.18500
H383        H  0.62413648  0.88621185  0.42491132     0.18500
N384        N  0.65614436  0.80082083  0.46577049    -0.88200
H385        H  0.71319833  0.98190384  0.35938894     0.35800
H386        H  0.71287926  0.05539761  0.38580713     0.40900
H387        H  0.66573128  0.77968140  0.97821703     0.40600
H388        H  0.63378360  0.79170133  0.46229580     0.35400
C389        C  0.68929243  0.45415617  0.16005348    -0.26300
C390        C  0.66076476  0.48188019  0.15776440    -0.14400
C391        C  0.65328484  0.54622276  0.17602673     0.36300
C392        C  0.67358365  0.57622116  0.19862087    -0.25700
C393        C  0.70092230  0.54245813  0.20340428    -0.15000
C394        C  0.70915969  0.48296742  0.18292211     0.37400
N395        N  0.73658385  0.44635890  0.18749197    -0.89200
H396        H  0.69568246  0.40559267  0.14582349     0.18500
H397        H  0.66721316  0.62187127  0.21452502     0.18500
N398        N  0.62495053  0.57903380  0.17245242    -0.88200
H399        H  0.74773058  0.44874367  0.16549116     0.35800
H400        H  0.73256542  0.38923330  0.19315086     0.40900
H401        H  0.62324265  0.60025499  0.14872813     0.40600
H402        H  0.62289215  0.62545667  0.18798793     0.35400
C403        C  0.68410856  0.13743106  0.07371192    -0.26300
C404        C  0.65624212  0.10697633  0.08003798    -0.14400
C405        C  0.65180532  0.02803653  0.07921825     0.36300
C406        C  0.67476506  0.98145527  0.06956018    -0.25700
C407        C  0.70148314  0.01278531  0.05887879    -0.15000
C408        C  0.70664452  0.09146264  0.06247108     0.37400
N409        N  0.73377783  0.12528631  0.05242846    -0.89200
H410        H  0.68758889  0.19838736  0.07492799     0.18500
H411        H  0.66166858  0.90972315  0.56036223     0.18500
N412        N  0.62383081  0.99588688  0.08702864    -0.88200
H413        H  0.73415077  0.18355941  0.05728604     0.35800
H414        H  0.73505531  0.11995812  0.02717938     0.40900
H415        H  0.61993236  0.00764485  0.11148414     0.40600
H416        H  0.61609625  0.93466173  0.58023901     0.35400
C417        C  0.30324664  0.50008999  0.47838247    -0.26300
C418        C  0.28963095  0.56221398  0.49306125    -0.14400
C419        C  0.30729793  0.62260827  0.50514357     0.36300
C420        C  0.33770875  0.62025237  0.50147496    -0.25700
C421        C  0.35106634  0.56003356  0.48536402    -0.15000
C422        C  0.33350499  0.49901351  0.47399202     0.37400
N423        N  0.34555186  0.43783700  0.45590669    -0.89200
H424        H  0.29019256  0.45282183  0.46935003     0.18500
H425        H  0.35096786  0.66841164  0.50923165     0.18500
N426        N  0.29456609  0.69045917  0.01255528    -0.88200
H427        H  0.36139862  0.41173231  0.47039950     0.35800
H428        H  0.35556824  0.46021352  0.43521423     0.40900
H429        H  0.28209079  0.71122272  0.99312367     0.40600
H430        H  0.30994147  0.73276399  0.01833109     0.35400
C431        C  0.13960602  0.45124592  0.43460224    -0.26300
C432        C  0.14888804  0.37819816  0.42686927    -0.14400
C433        C  0.17908392  0.36315609  0.42727311     0.36300
C434        C  0.19894570  0.41812853  0.43889514    -0.25700
C435        C  0.18942999  0.48893970  0.44968408    -0.15000
C436        C  0.15970731  0.50732780  0.44498239     0.37400
N437        N  0.15198797  0.58031552  0.94899868    -0.89200
H438        H  0.11664410  0.46436340  0.43330724     0.18500
H439        H  0.22154232  0.40255998  0.44199779     0.18500
N440        N  0.18959261  0.29012773  0.41807597    -0.88200
H441        H  0.14224363  0.60071342  0.92765018     0.35800
H442        H  0.13587912  0.57661881  0.96672188     0.40900
H443        H  0.20084393  0.26684720  0.43788160     0.40600
H444        H  0.20437350  0.29804417  0.39918035     0.35400
C445        C  0.20194542  0.00350920  0.47405580    -0.26300
C446        C  0.18949028  0.07130030  0.48450713    -0.14400
C447        C  0.20775233  0.12875079  0.49765687     0.36300
C448        C  0.23803743  0.11900313  0.49878238    -0.25700
C449        C  0.25074194  0.05295477  0.48656510    -0.15000
C450        C  0.23027500  0.98168983  0.98416691     0.37400
N451        N  0.24171314  0.90806679  0.97775722    -0.89200
H452        H  0.18589595  0.94700396  0.97408442     0.17700
H453        H  0.25174273  0.16452990  0.50828130     0.18500
N454        N  0.19557648  0.19788545  0.50928735    -0.88200
H455        H  0.23519621  0.89219044  0.95427652     0.35800
H456        H  0.23237002  0.86953622  0.99413398     0.40900
H457        H  0.20497290  0.24319049  0.49647197     0.40600
H458        H  0.20152093  0.20384881  0.53377211     0.35400
C459        C  0.70857225  0.12174388  0.27328706    -0.26300
C460        C  0.68957240  0.05894227  0.27747490    -0.14400
C461        C  0.70152567  0.98520889  0.27765617     0.36300
C462        C  0.73196106  0.97660001  0.27426788    -0.25700
C463        C  0.75071342  0.03996560  0.27107260    -0.15000
C464        C  0.73864756  0.11317798  0.27041093     0.37400
N465        N  0.75656143  0.18027335  0.26833332    -0.89200
H466        H  0.70011087  0.17891004  0.27348849     0.18500
H467        H  0.74119750  0.92030033  0.27467307     0.18500
N468        N  0.68308629  0.91965792  0.28247664    -0.88200
H469        H  0.76780061  0.17963286  0.24641461     0.35800
H470        H  0.77168446  0.17959668  0.28752974     0.40900
H471        H  0.67511098  0.92217156  0.30615189     0.40600
H472        H  0.69519552  0.86992003  0.28121369     0.35400
C473        C  0.86696477  0.82520252  0.32974738    -0.26300
C474        C  0.89511239  0.85596522  0.33412775    -0.14400
C475        C  0.89956408  0.93476923  0.33142591     0.36300
C476        C  0.87595901  0.98077798  0.32220267    -0.25700
C477        C  0.84842663  0.94871221  0.31424919    -0.15000
C478        C  0.84386395  0.87008896  0.31923767     0.37400
N479        N  0.81685389  0.83296945  0.31097510    -0.89200
H480        H  0.86335058  0.76443128  0.33200143     0.18500
H481        H  0.87971866  0.04090649  0.31801662     0.18500
N482        N  0.92806351  0.96717482  0.33688312    -0.88200
H483        H  0.81215173  0.84281514  0.28640346     0.35800
H484        H  0.80042705  0.85615053  0.32503989     0.40900
H485        H  0.93369687  0.95737740  0.36125593     0.40600
H486        H  0.92767319  0.02605345  0.33372713     0.35400
C487        C  0.81003086  0.49139677  0.27311387    -0.26300
C488        C  0.79264498  0.55625865  0.27007046    -0.14400
C489        C  0.80634107  0.62825093  0.26839548     0.36300
C490        C  0.83667109  0.63437640  0.27057910    -0.25700
C491        C  0.85431903  0.57019444  0.27503853    -0.15000
C492        C  0.84073746  0.49751049  0.27586234     0.37400
N493        N  0.85783335  0.43062500  0.28082516    -0.89200
H494        H  0.79952616  0.43596082  0.27405493     0.18500
H495        H  0.84645454  0.69075267  0.27019091     0.18500
N496        N  0.78987789  0.69659408  0.26597972    -0.88200
H497        H  0.84457196  0.38190116  0.28002953     0.35800
H498        H  0.86662483  0.43317682  0.30436749     0.40900
H499        H  0.77558574  0.69834529  0.28555728     0.40600
H500        H  0.77769650  0.69546883  0.24438414     0.35400
C501        C  0.30278159  0.86029887  0.24372606    -0.26300
C502        C  0.29185990  0.93002326  0.23265347    -0.14400
C503        C  0.31171967  0.98717784  0.22229994     0.36300
C504        C  0.34153505  0.97172687  0.22132680    -0.25700
C505        C  0.35212595  0.90019287  0.23023324    -0.15000
C506        C  0.33266672  0.84471049  0.24257363     0.37400
N507        N  0.34330833  0.77210893  0.25309240    -0.89200
H508        H  0.28778819  0.81709812  0.25257792     0.18500
H509        H  0.35628125  0.01442605  0.21157716     0.18500
N510        N  0.30242799  0.06156805  0.21299126    -0.88200
H511        H  0.32620776  0.73752616  0.26132169     0.35800
H512        H  0.35715734  0.78155935  0.27306582     0.40900
H513        H  0.29019019  0.08408204  0.23185390     0.40600
H514        H  0.28941465  0.05765432  0.19211240     0.35400
C515        C  0.18914191  0.02820978  0.34331657    -0.26300
C516        C  0.16051290  0.99841332  0.34395595    -0.14400
C517        C  0.15293612  0.93733884  0.32319874     0.36300
C518        C  0.17329906  0.91264562  0.30045019    -0.25700
C519        C  0.20062268  0.94888127  0.29755357    -0.15000
C520        C  0.20893035  0.00516644  0.31999765     0.37400
N521        N  0.23637315  0.04423349  0.31728669    -0.89200
H522        H  0.19578231  0.07401232  0.35940591     0.18500
H523        H  0.16698834  0.86931341  0.28299105     0.18500
N524        N  0.12438668  0.90301792  0.32411482    -0.88200
H525        H  0.24756866  0.03862545  0.33943221     0.35800
H526        H  0.23237734  0.10192910  0.31346521     0.40900
H527        H  0.12232729  0.87585685  0.34664883     0.40600
H528        H  0.12219157  0.86073246  0.30644893     0.35400
C529        C  0.20932783  0.49630650  0.07571105    -0.26300
C530        C  0.20134882  0.56126661  0.05831762    -0.14400
C531        C  0.17424824  0.59505840  0.06446301     0.36300
C532        C  0.15418632  0.55760073  0.08478906    -0.25700
C533        C  0.16108244  0.48791609  0.09940186    -0.15000
C534        C  0.18939853  0.45854721  0.09560492     0.37400
N535        N  0.19741489  0.38719533  0.10979758    -0.89200
H536        H  0.22986807  0.46924508  0.07078924     0.18500
H537        H  0.13286175  0.58151269  0.08835973     0.18500
N538        N  0.16653013  0.66409014  0.04794768    -0.88200
H539        H  0.21584096  0.39620833  0.12451405     0.35800
H540        H  0.20302486  0.35030007  0.09107660     0.40900
H541        H  0.18095932  0.70658781  0.05599128     0.40600
H542        H  0.14567559  0.68089575  0.05458091     0.35400
C543        C  0.16709704  0.98273352  0.17745722    -0.26300
C544        C  0.19542410  0.01208692  0.18313186    -0.14400
C545        C  0.20163970  0.08792246  0.17452104     0.36300
C546        C  0.17891832  0.13518254  0.16454095    -0.25700
C547        C  0.14988219  0.10864517  0.16419147    -0.15000
C548        C  0.14403873  0.03096100  0.16893216     0.37400
N549        N  0.11465460  0.00236071  0.16675468    -0.89200
H550        H  0.16231764  0.92413170  0.18382619     0.18500
H551        H  0.18370436  0.19488495  0.16035253     0.18500
N552        N  0.23028188  0.11937916  0.17934905    -0.88200
H553        H  0.11403762  0.94387600  0.17125077     0.35800
H554        H  0.10748559  0.01005695  0.14275988     0.40900
H555        H  0.22892444  0.16435967  0.19569200     0.40600
H556        H  0.23735172  0.14151170  0.15709915     0.35400
C557        C  0.23047140  0.46067183  0.22621704    -0.26300
C558        C  0.24617106  0.39799589  0.23792117    -0.14400
C559        C  0.23066383  0.33396927  0.24965468     0.36300
C560        C  0.20017192  0.33242021  0.24819340    -0.25700
C561        C  0.18451691  0.39349772  0.23510556    -0.15000
C562        C  0.19979849  0.45909648  0.22467082     0.37400
N563        N  0.18429885  0.52147475  0.21036262    -0.89200
H564        H  0.24220596  0.51071620  0.21786891     0.18500
H565        H  0.18867997  0.28111880  0.25559677     0.18500
N566        N  0.24578492  0.26880968  0.26169991    -0.88200
H567        H  0.19880527  0.56375053  0.20252838     0.35800
H568        H  0.17185199  0.54571962  0.22865345     0.40900
H569        H  0.23945860  0.22189201  0.24777695     0.40600
H570        H  0.23913923  0.25875978  0.28562571     0.35400
C571        C  0.72817771  0.48268873  0.01850270    -0.26300
C572        C  0.74536170  0.42014043  0.01027424    -0.14400
C573        C  0.73127567  0.35010017  0.00294499     0.36300
C574        C  0.70102710  0.34350943  0.00536764    -0.25700
C575        C  0.68400419  0.40452952  0.01555263    -0.15000
C576        C  0.69770398  0.47540045  0.02125405     0.37400
N577        N  0.68110152  0.53858111  0.03201922    -0.89200
H578        H  0.73857046  0.53692411  0.02384443     0.18500
H579        H  0.69090619  0.28825702  0.00141702     0.18500
N580        N  0.74779110  0.28014471  0.49900842    -0.88200
H581        H  0.68433808  0.58337522  0.01564088     0.35800
H582        H  0.68931350  0.55558292  0.05471275     0.40900
H583        H  0.76250481  0.26860664  0.51789971     0.40600
H584        H  0.75919899  0.28730720  0.47740207     0.35400
C585        C  0.86813849  0.39246324  0.45114498    -0.26300
C586        C  0.84062926  0.42668879  0.45221537    -0.14400
C587        C  0.83332285  0.48113450  0.42829284     0.36300
C588        C  0.85436530  0.50538152  0.40641457    -0.25700
C589        C  0.88320129  0.47928107  0.40837274    -0.15000
C590        C  0.88963976  0.41913765  0.42981236     0.37400
N591        N  0.91811301  0.38714737  0.43106125    -0.89200
H592        H  0.87390725  0.35013280  0.46923144     0.18500
H593        H  0.84840054  0.54975313  0.38936319     0.18500
N594        N  0.80575176  0.51825054  0.42727667    -0.88200
H595        H  0.91602997  0.32894469  0.42647436     0.35800
H596        H  0.92642129  0.39384475  0.45467094     0.40900
H597        H  0.80204791  0.54391364  0.44966295     0.40600
H598        H  0.78940857  0.47788249  0.42238488     0.35400
C599        C  0.82987521  0.99227041  0.17800224    -0.26300
C600        C  0.84115208  0.03798855  0.20296280    -0.14400
C601        C  0.86997038  0.06643277  0.20068298     0.36300
C602        C  0.88837237  0.03783814  0.17675152    -0.25700
C603        C  0.87830275  0.98282737  0.15455161    -0.15000
C604        C  0.84792772  0.96447958  0.15382077     0.37400
N605        N  0.83479349  0.91435988  0.13032134    -0.89200
H606        H  0.80762712  0.97119542  0.17915129     0.18500
H607        H  0.91104777  0.05552638  0.17666118     0.18500
N608        N  0.88100660  0.11937540  0.22448910    -0.88200
H609        H  0.84362495  0.86024726  0.13286647     0.35800
H610        H  0.83857739  0.93587129  0.10699791     0.40900
H611        H  0.86911191  0.16928741  0.22195351     0.40600
H612        H  0.90272973  0.13367382  0.21986741     0.35400
C613        C  0.85874630  0.63533106  0.07852401    -0.26300
C614        C  0.88705461  0.60707515  0.08251244    -0.14400
C615        C  0.89150091  0.52845897  0.07981946     0.36300
C616        C  0.86810317  0.48090230  0.07066938    -0.25700
C617        C  0.84076380  0.51102700  0.06183233    -0.15000
C618        C  0.83582539  0.58887662  0.06753233     0.37400
N619        N  0.80872499  0.62402067  0.05947765    -0.89200
H620        H  0.85492970  0.69568175  0.08099203     0.18500
H621        H  0.87224547  0.42128503  0.06650655     0.18500
N622        N  0.91954538  0.49588717  0.08520935    -0.88200
H623        H  0.79231943  0.59824197  0.07322290     0.35800
H624        H  0.80415642  0.61583796  0.03478647     0.40900
H625        H  0.92677823  0.51092521  0.10853338     0.40600
H626        H  0.93403646  0.51891121  0.06830517     0.35400
C627        C  0.83873216  0.84095056  0.00373190    -0.26300
C628        C  0.85648514  0.90220320  0.01379637    -0.14400
C629        C  0.84369251  0.97354182  0.01909147     0.36300
C630        C  0.81319859  0.98033079  0.01639687    -0.25700
C631        C  0.79525850  0.91715629  0.00904531    -0.15000
C632        C  0.80835983  0.84715648  0.00168146     0.37400
N633        N  0.78714442  0.76098824  0.50163094    -0.89200
H634        H  0.84849677  0.78611517  0.99972786     0.18500
H635        H  0.80327373  0.03457084  0.02116885     0.18500
N636        N  0.86135252  0.03758346  0.02901433    -0.88200
H637        H  0.80065368  0.71375489  0.50066577     0.35800
H638        H  0.77389676  0.75331344  0.52191307     0.40900
H639        H  0.86946683  0.02612562  0.05235631     0.40600
H640        H  0.84864347  0.08611797  0.03102611     0.35400
C641        C  0.03393525  0.20494911  0.58699386     0.80300
N642        N  0.04465982  0.21446378  0.55642717    -0.78100
C643        C  0.03642812  0.16643592  0.53208104     0.82700
N644        N  0.01745910  0.10860569  0.53851936    -0.78000
C645        C  0.00657981  0.09806269  0.56881040     0.82800
N646        N  0.01550031  0.14522740  0.59327633    -0.79700
O647        O  0.97034534  0.86374489  0.50644767    -0.78500
C648        C  0.88136967  0.88006454  0.53099208     0.82600
O649        O  0.99008794  0.99328655  0.60145188    -0.79600
O650        O  0.89167126  0.89685145  0.61853276    -0.81100
O651        O  0.93226413  0.66543840  0.56932320    -0.80900
O652        O  0.98829185  0.75423850  0.52557107    -0.79500
Zn653      Zn  0.94647797  0.91327598  0.54167186     1.55700
O654        O  0.90643164  0.71534442  0.60867025    -0.80900
Cd655      Cd  0.96652848  0.74706627  0.57068086     1.59700
Cd656      Cd  0.96457497  0.90102596  0.61794938     1.59600
O657        O  0.99206866  0.71913069  0.61158344    -0.80900
O658        O  0.94924451  0.84814192  0.57887854    -1.91400
Cd659      Cd  0.90964382  0.82044414  0.58911651     1.59900
O660        O  0.98552587  0.81606282  0.64611067    -0.80800
O661        O  0.88470913  0.82122580  0.54843059    -0.79500
C662        C  0.98745218  0.03117121  0.57488623     0.83100
C663        C  0.98636707  0.80540953  0.50335706     0.82700
O664        O  0.90237526  0.92836210  0.52759641    -0.78400
C665        C  0.91097738  0.66156377  0.58912709     0.83500
O666        O  0.96977181  0.01049323  0.55214416    -0.78500
C667        C  0.99478122  0.74912062  0.63984382     0.83600
C668        C  0.90229984  0.94311803  0.63900164     0.84000
O669        O  0.92986931  0.94982448  0.64314959    -0.81000
C670        C  0.77987843  0.42249949  0.51423814     0.03200
C671        C  0.79325980  0.41260047  0.98187653    -0.13000
C672        C  0.82341694  0.42538163  0.98062136     0.00700
C673        C  0.83799782  0.45223154  0.00826897    -0.11500
C674        C  0.82595525  0.46014894  0.54029232     0.03200
C675        C  0.79571569  0.44669092  0.54208292    -0.10900
H676        H  0.78169313  0.39392783  0.96031338     0.08800
H677        H  0.86099799  0.46643348  0.00669285     0.06300
H678        H  0.78438870  0.45717148  0.56451534     0.06100
C679        C  0.00707198  0.70216950  0.66669759     0.80300
N680        N  0.02479438  0.64235595  0.66014878    -0.78100
C681        C  0.03387552  0.59542680  0.68463720     0.82700
N682        N  0.02392645  0.60643828  0.71519063    -0.78000
C683        C  0.00573675  0.66420380  0.72198790     0.82800
N684        N  0.99728492  0.71194977  0.69763430    -0.79700
O685        O  0.07036628  0.36073409  0.74770724    -0.78500
C686        C  0.15673034  0.37854602  0.72339144     0.82600
O687        O  0.05045823  0.49196404  0.65206746    -0.79600
O688        O  0.14978692  0.40023861  0.64003477    -0.81100
O689        O  0.10578814  0.16146268  0.68366795    -0.80900
O690        O  0.05162319  0.25025736  0.72955670    -0.79500
Zn691      Zn  0.09307984  0.41218758  0.71212818     1.55700
O692        O  0.13295639  0.21557887  0.64586673    -0.80900
Cd693      Cd  0.07264653  0.24494950  0.68373175     1.59700
Cd694      Cd  0.07688283  0.40263360  0.63671858     1.59600
O695        O  0.04700989  0.22144447  0.64247527    -0.80900
O696        O  0.09029387  0.34678558  0.67558925    -1.91400
Cd697      Cd  0.12974254  0.31910033  0.66663773     1.59900
O698        O  0.05687513  0.31758423  0.60769117    -0.80800
O699        O  0.15157408  0.31579583  0.70938086    -0.79500
C700        C  0.05270838  0.52915497  0.67872996     0.83100
C701        C  0.05441911  0.30150984  0.75159171     0.82700
O702        O  0.13695526  0.42914622  0.72485152    -0.78400
C703        C  0.12727406  0.15924410  0.66408201     0.83500
O704        O  0.06991605  0.50830543  0.70174677    -0.78500
C705        C  0.04608419  0.25138720  0.61398373     0.83600
C706        C  0.14028743  0.45054102  0.62070754     0.84000
O707        O  0.11297568  0.45711671  0.61506386    -0.81000
C708        C  0.25960076  0.93198536  0.73527836     0.03200
C709        C  0.24207440  0.94966441  0.70779139    -0.13000
C710        C  0.21175076  0.95901322  0.71109450     0.00700
C711        C  0.19933751  0.94709477  0.74152989    -0.11500
C712        C  0.21623526  0.93066016  0.76891393     0.03200
C713        C  0.24634179  0.92222304  0.76573215    -0.10900
H714        H  0.25193177  0.95753714  0.68422372     0.08800
H715        H  0.17644714  0.95893626  0.74478551     0.06300
H716        H  0.25959776  0.91106923  0.78715021     0.06100
C717        C  0.03614328  0.26083157  0.83760478     0.80300
N718        N  0.01857212  0.32090308  0.84378004    -0.78100
C719        C  0.00976292  0.36751993  0.81917397     0.82700
N720        N  0.01984795  0.35596875  0.78870881    -0.78000
C721        C  0.03795175  0.29770688  0.78219468     0.82800
N722        N  0.04614211  0.25021778  0.80678706    -0.79700
O723        O  0.90671185  0.53499050  0.78376107    -0.78500
C724        C  0.98991656  0.66081060  0.75298748     0.82600
O725        O  0.99397896  0.47019190  0.85232411    -0.79600
O726        O  0.00034636  0.73955982  0.86297419    -0.81100
O727        O  0.91514680  0.75653845  0.85915296    -0.80900
O728        O  0.89244203  0.64836277  0.79949088    -0.79500
Zn729      Zn  0.95103986  0.55333711  0.79350976     1.55700
O730        O  0.94255714  0.80499983  0.82030867    -0.80900
Cd731      Cd  0.91664582  0.65045115  0.84064443     1.59700
Cd732      Cd  0.96894424  0.56084701  0.86866009     1.59600
O733        O  0.89691425  0.57603356  0.87052920    -0.80900
O734        O  0.95532448  0.61828558  0.83018528    -1.91400
Cd735      Cd  0.97452738  0.71801711  0.82157189     1.59900
O736        O  0.93313788  0.51085858  0.89248212    -0.80800
O737        O  0.99501965  0.70923476  0.77571711    -0.79500
C738        C  0.99150217  0.43452286  0.82531484     0.83100
C739        C  0.88670575  0.58458633  0.78655884     0.82700
O740        O  0.97235465  0.60456063  0.75656457    -0.78400
C741        C  0.92104031  0.81031492  0.83970973     0.83500
O742        O  0.97442547  0.45706726  0.80251455    -0.78500
C743        C  0.90595399  0.52377913  0.88918470     0.83600
C744        C  0.00092617  0.70939663  0.89145471     0.84000
O745        O  0.98999773  0.64341795  0.89756908    -0.81000
C746        C  0.78899372  0.05329961  0.77115593     0.03200
C747        C  0.80247054  0.06960517  0.74127290    -0.13000
C748        C  0.83266567  0.06192224  0.73779955     0.00700
C749        C  0.84928989  0.03820733  0.76443102    -0.11500
C750        C  0.83670642  0.01832026  0.79406555     0.03200
C751        C  0.80627329  0.02674904  0.79752670    -0.10900
H752        H  0.78926145  0.08435767  0.72024564     0.08800
H753        H  0.87205065  0.02580402  0.76072123     0.06300
H754        H  0.79597218  0.01120514  0.82019025     0.06100
C755        C  0.01215971  0.75620119  0.91871703     0.80300
N756        N  0.02980883  0.81744922  0.91253310    -0.78100
C757        C  0.03691406  0.86709940  0.93669185     0.82700
N758        N  0.02514665  0.85720317  0.96657049    -0.78000
C759        C  0.00698993  0.79766660  0.97302173     0.82800
N760        N  0.00045345  0.74719022  0.94893438    -0.79700
O761        O  0.13743477  0.03483758  0.97797334    -0.78500
C762        C  0.05459296  0.16177845  0.00235724     0.82600
O763        O  0.05346512  0.97123946  0.90362433    -0.79600
O764        O  0.05029038  0.24635045  0.89304347    -0.81100
O765        O  0.13678008  0.25841414  0.90240662    -0.80900
O766        O  0.15599890  0.14428608  0.96066836    -0.79500
Zn767      Zn  0.09439666  0.05507791  0.96432858     1.55700
O768        O  0.10767115  0.30566111  0.93934278    -0.80900
Cd769      Cd  0.13246884  0.15052797  0.91901707     1.59700
Cd770      Cd  0.07842098  0.06571586  0.88819869     1.59600
O771        O  0.15128631  0.07817450  0.88813612    -0.80900
O772        O  0.09261026  0.12076134  0.92734996    -1.91400
Cd773      Cd  0.07445097  0.22083700  0.93534775     1.59900
O774        O  0.11385297  0.02065086  0.86351784    -0.80800
O775        O  0.05169581  0.21166399  0.97974470    -0.79500
C776        C  0.05523294  0.93525557  0.93073194     0.83100
C777        C  0.15870878  0.08237747  0.97612741     0.82700
O778        O  0.07126617  0.10475968  0.99958266    -0.78400
C779        C  0.13040460  0.31132773  0.92170118     0.83500
O780        O  0.07146339  0.95877457  0.95413930    -0.78500
C781        C  0.14123971  0.03101757  0.86752553     0.83600
C782        C  0.04812168  0.21520427  0.86492253     0.84000
O783        O  0.05751668  0.14822954  0.85924046    -0.81000
C784        C  0.25941159  0.55859243  0.99433738     0.03200
C785        C  0.24399764  0.58247413  0.52506125    -0.13000
C786        C  0.21366844  0.57833108  0.52847654     0.00700
C787        C  0.19644513  0.55500048  0.50205520    -0.11500
C788        C  0.21110434  0.53214927  0.97015972     0.03200
C789        C  0.24177590  0.53576325  0.96754879    -0.10900
H790        H  0.25742878  0.59543320  0.54618985     0.08800
H791        H  0.17356760  0.54344421  0.50609511     0.06300
H792        H  0.25195524  0.51817573  0.94523453     0.06100
C793        C  0.50547808  0.69744804  0.58889057     0.80300
N794        N  0.49402142  0.70558807  0.55825419    -0.78100
C795        C  0.50136724  0.65694325  0.53412096     0.82700
N796        N  0.52030970  0.60030406  0.54078611    -0.78000
C797        C  0.53207494  0.59119612  0.57098768     0.82800
N798        N  0.52399517  0.63878639  0.59532634    -0.79700
O799        O  0.63547250  0.43733938  0.52866299    -0.78500
C800        C  0.55290667  0.30268701  0.50278644     0.82600
O801        O  0.55175923  0.48982172  0.60365495    -0.79600
O802        O  0.55072771  0.21426188  0.61179103    -0.81100
O803        O  0.63776158  0.20809729  0.60092473    -0.80900
O804        O  0.65408552  0.32884247  0.54614323    -0.79500
Zn805      Zn  0.59242018  0.41323184  0.54215412     1.55700
O806        O  0.60705064  0.16274218  0.56377985    -0.80900
Cd807      Cd  0.63191031  0.31780356  0.58760043     1.59700
Cd808      Cd  0.57843368  0.39844125  0.61818672     1.59600
O809        O  0.65149998  0.38763977  0.62029220    -0.80900
O810        O  0.59189303  0.34552410  0.57873063    -1.91400
Cd811      Cd  0.57378779  0.24405279  0.56962833     1.59900
O812        O  0.61447991  0.44546732  0.64354731    -0.80800
O813        O  0.55021507  0.25234123  0.52523388    -0.79500
C814        C  0.55200315  0.52648039  0.57664651     0.83100
C815        C  0.65665749  0.39077044  0.53068622     0.82700
O816        O  0.56933425  0.36135404  0.50615744    -0.78400
C817        C  0.63058459  0.15730076  0.58053147     0.83500
O818        O  0.56802377  0.50617347  0.55301026    -0.78500
C819        C  0.64179942  0.43432161  0.64079344     0.83600
C820        C  0.54917219  0.24441409  0.64009464     0.84000
O821        O  0.55858515  0.31199741  0.64617499    -0.81000
C822        C  0.75779024  0.90512399  0.50637984     0.03200
C823        C  0.74213900  0.94049625  0.53139335    -0.13000
C824        C  0.71158123  0.94573093  0.52934571     0.00700
C825        C  0.70251038  0.94064917  0.00844470    -0.11500
C826        C  0.71584548  0.90566275  0.98228712     0.03200
C827        C  0.74616741  0.89763949  0.98292279    -0.10900
H828        H  0.75372015  0.96527994  0.55194099     0.08800
H829        H  0.67954296  0.95354170  0.00680506     0.06300
H830        H  0.75684386  0.87365299  0.96206739     0.06100
C831        C  0.53792108  0.19725864  0.66725762     0.80300
N832        N  0.51893563  0.13841767  0.66126734    -0.78100
C833        C  0.51049088  0.09121780  0.68586139     0.82700
N834        N  0.52237734  0.10088071  0.71603921    -0.78000
C835        C  0.54191465  0.15790363  0.72225233     0.82800
N836        N  0.54958861  0.20613435  0.69775330    -0.79700
O837        O  0.40415408  0.93155142  0.72353883    -0.78500
C838        C  0.48670020  0.80320490  0.75305075     0.82600
O839        O  0.49222639  0.98756330  0.65354700    -0.79600
O840        O  0.49268139  0.71567971  0.64429847    -0.81100
O841        O  0.40570677  0.70993174  0.64845589    -0.80900
O842        O  0.38615326  0.82089293  0.70681589    -0.79500
Zn843      Zn  0.44807319  0.91126265  0.71243793     1.55700
O844        O  0.43370712  0.66022501  0.68696065    -0.80900
Cd845      Cd  0.41024868  0.81640512  0.66607842     1.59700
Cd846      Cd  0.46522694  0.89748188  0.63733729     1.59600
O847        O  0.39229646  0.89268059  0.63555974    -0.80900
O848        O  0.45022402  0.84405034  0.67616388    -1.91400
Cd849      Cd  0.46772666  0.74324847  0.68518027     1.59900
O850        O  0.43032395  0.94992652  0.61294651    -0.80800
O851        O  0.48949202  0.75258516  0.73091408    -0.79500
C852        C  0.49048484  0.02566779  0.67995375     0.83100
C853        C  0.38290020  0.88364846  0.72118345     0.82700
O854        O  0.47040663  0.86091516  0.74918463    -0.78400
C855        C  0.41139537  0.65627319  0.66800196     0.83500
O856        O  0.47281301  0.00643138  0.70251437    -0.78500
C857        C  0.40280060  0.94207245  0.61638071     0.83600
C858        C  0.49424742  0.74498451  0.61572314     0.84000
O859        O  0.48465033  0.81167964  0.60913314    -0.81000
C860        C  0.28136704  0.40252316  0.73727682     0.03200
C861        C  0.29617249  0.38339302  0.76626435    -0.13000
C862        C  0.32626600  0.39557486  0.76918870     0.00700
C863        C  0.34188357  0.42055922  0.74229192    -0.11500
C864        C  0.32786327  0.44265830  0.71362354     0.03200
C865        C  0.29738552  0.43309129  0.71096867    -0.10900
H866        H  0.28400542  0.36509516  0.78735109     0.08800
H867        H  0.36490611  0.43361556  0.74536289     0.06300
H868        H  0.28614237  0.45194337  0.68915488     0.06100
C869        C  0.53507693  0.25666765  0.91649798     0.80300
N870        N  0.51706494  0.31634276  0.90988478    -0.78100
C871        C  0.50739951  0.36091710  0.93456646     0.82700
N872        N  0.51714440  0.34781124  0.96534519    -0.78000
C873        C  0.53565831  0.29033243  0.97222559     0.82800
N874        N  0.54458265  0.24491064  0.94768959    -0.79700
O875        O  0.47085120  0.59331646  0.99807872    -0.78500
C876        C  0.38291179  0.57175705  0.97221202     0.82600
O877        O  0.49141334  0.46756925  0.90265882    -0.79600
O878        O  0.39316592  0.56241727  0.88385787    -0.81100
O879        O  0.43342099  0.79270385  0.93765095    -0.80900
O880        O  0.48917701  0.70518894  0.98102540    -0.79500
Zn881      Zn  0.44770743  0.54289718  0.96195735     1.55700
O882        O  0.40635048  0.74454874  0.89781233    -0.80900
Cd883      Cd  0.46775662  0.71332074  0.93507929     1.59700
Cd884      Cd  0.46565804  0.55908591  0.88690874     1.59600
O885        O  0.49278017  0.74383742  0.89413589    -0.80900
O886        O  0.45037378  0.61108223  0.92573826    -1.91400
Cd887      Cd  0.41072575  0.63754740  0.91500652     1.59900
O888        O  0.48608804  0.64613056  0.85951229    -0.80800
O889        O  0.38581382  0.63100397  0.95495040    -0.79500
C890        C  0.48865271  0.42797207  0.92870459     0.83100
C891        C  0.48658678  0.65278072  0.00266773     0.82700
O892        O  0.40385639  0.52458380  0.97546989    -0.78400
C893        C  0.41130151  0.79630524  0.91848709     0.83500
O894        O  0.47113963  0.44716249  0.95124554    -0.78500
C895        C  0.49522103  0.71388225  0.86587100     0.83600
C896        C  0.40353419  0.51531732  0.86404337     0.84000
O897        O  0.43098871  0.50799140  0.86086013    -0.81000
C898        C  0.28142110  0.03564865  0.99282612     0.03200
C899        C  0.29645050  0.00405964  0.96640592    -0.13000
C900        C  0.32688511  0.99589270  0.96805441     0.00700
C901        C  0.34319862  0.02311312  0.49135804    -0.11500
C902        C  0.32881165  0.05212631  0.51818146     0.03200
C903        C  0.29868162  0.06357793  0.51605039    -0.10900
H904        H  0.28452764  0.98486643  0.94505203     0.08800
H905        H  0.36586276  0.00747988  0.49398655     0.06300
H906        H  0.28716233  0.08225590  0.53735761     0.06100
C907        C  0.50694667  0.76129738  0.83887800     0.80300
N908        N  0.52591473  0.82026718  0.84494977    -0.78100
C909        C  0.53476529  0.86687621  0.82022857     0.82700
N910        N  0.52320436  0.85682192  0.78998078    -0.78000
C911        C  0.50370883  0.79988337  0.78371206     0.82800
N912        N  0.49567013  0.75213972  0.80823122    -0.79700
O913        O  0.57525894  0.09727270  0.75714719    -0.78500
C914        C  0.66382733  0.08076476  0.78784174     0.82600
O915        O  0.55144387  0.97275357  0.85175296    -0.79600
O916        O  0.65086508  0.06155470  0.87085289    -0.81100
O917        O  0.61090799  0.29847633  0.82330911    -0.80900
O918        O  0.55630374  0.20640651  0.77490880    -0.79500
Zn919      Zn  0.59793093  0.04747566  0.79414038     1.55700
O920        O  0.63653095  0.24555841  0.86300878    -0.80900
Cd921      Cd  0.57675240  0.21548796  0.82158747     1.59700
Cd922      Cd  0.57824246  0.06125048  0.86845412     1.59600
O923        O  0.54996758  0.24120852  0.86140913    -0.80900
O924        O  0.59412999  0.11462172  0.83025010    -1.91400
Cd925      Cd  0.63356274  0.14195408  0.84224959     1.59900
O926        O  0.55806018  0.14540251  0.89656997    -0.80800
O927        O  0.65908188  0.14240588  0.80258753    -0.79500
C928        C  0.55451284  0.93291668  0.82607892     0.83100
C929        C  0.55902178  0.15511476  0.75298461     0.82700
O930        O  0.64312077  0.03134250  0.78405527    -0.78400
C931        C  0.63178471  0.30143266  0.84429736     0.83500
O932        O  0.57319856  0.95092515  0.80424600    -0.78500
C933        C  0.54786374  0.21133961  0.88983797     0.83600
C934        C  0.63973408  0.01059708  0.88876763     0.84000
O935        O  0.61220310  0.00506881  0.89242694    -0.81000
C936        C  0.76226928  0.54000168  0.77524529     0.03200
C937        C  0.74644682  0.51908935  0.80320112    -0.13000
C938        C  0.71618926  0.50494212  0.80082709     0.00700
C939        C  0.70222950  0.51486309  0.77066864    -0.11500
C940        C  0.71771573  0.53396974  0.74286131     0.03200
C941        C  0.74777334  0.54684129  0.74515587    -0.10900
H942        H  0.75777632  0.51213856  0.82621030     0.08800
H943        H  0.67933945  0.49993457  0.76795894     0.06300
H944        H  0.76004746  0.55904418  0.72335232     0.06100
C945        C  0.68333590  0.34268609  0.84641935    -0.26300
C946        C  0.65391323  0.36339746  0.84388009    -0.14400
C947        C  0.64725059  0.44004800  0.83776282     0.36300
C948        C  0.66979021  0.49164842  0.83056443    -0.25700
C949        C  0.69862212  0.46685150  0.82656405    -0.15000
C950        C  0.70566110  0.39286340  0.83735168     0.37400
N951        N  0.73471383  0.36443016  0.83659119    -0.89200
H952        H  0.68898134  0.28456236  0.85223463     0.18500
H953        H  0.66411937  0.54891493  0.82336727     0.18500
N954        N  0.61791190  0.46647041  0.83750899    -0.88200
H955        H  0.74794193  0.39812876  0.85170273     0.35800
H956        H  0.74238409  0.36710032  0.81279307     0.40900
H957        H  0.60850062  0.45222140  0.85978089     0.40600
H958        H  0.60625984  0.43899523  0.81893456     0.35400
C959        C  0.36050816  0.82247328  0.93224572    -0.26300
C960        C  0.38805863  0.85164952  0.92399702    -0.14400
C961        C  0.39265200  0.93082285  0.92341974     0.36300
C962        C  0.37035144  0.97877613  0.93348005    -0.25700
C963        C  0.34373436  0.94900105  0.94514754    -0.15000
C964        C  0.33858434  0.86976867  0.94330484     0.37400
N965        N  0.31237500  0.83487541  0.95507547    -0.89200
H966        H  0.35664843  0.76158343  0.93239973     0.18500
H967        H  0.37473504  0.03932223  0.93494005     0.18500
N968        N  0.41975443  0.96366895  0.91326265    -0.88200
H969        H  0.29480073  0.85528155  0.94145159     0.35800
H970        H  0.30504033  0.86081694  0.46575182     0.40900
H971        H  0.42376976  0.94528197  0.88961702     0.40600
H972        H  0.43630810  0.94351400  0.92852400     0.35400
C973        C  0.35347263  0.49734217  0.84263284    -0.26300
C974        C  0.38226392  0.47125300  0.84413430    -0.14400
C975        C  0.38960842  0.40654202  0.82611492     0.36300
C976        C  0.36873052  0.37310616  0.80523613    -0.25700
C977        C  0.34106840  0.40539001  0.80095308    -0.15000
C978        C  0.33314784  0.46655342  0.82100560     0.37400
N979        N  0.30569917  0.50383643  0.81786176    -0.89200
H980        H  0.34702824  0.54623436  0.85662136     0.18500
H981        H  0.37515968  0.32680869  0.78969590     0.18500
N982        N  0.41836329  0.37635358  0.82788847    -0.88200
H983        H  0.28905604  0.46505803  0.82309348     0.35800
H984        H  0.30318271  0.52413422  0.79403006     0.40900
H985        H  0.42707897  0.37767871  0.80450533     0.40600
H986        H  0.41669657  0.31957319  0.83522643     0.35400
C987        C  0.39284550  0.04263534  0.57473975    -0.26300
C988        C  0.38214451  0.98882337  0.59703931    -0.14400
C989        C  0.35159418  0.97677202  0.59887303     0.36300
C990        C  0.33331891  0.00750418  0.57495568    -0.25700
C991        C  0.34478653  0.05157231  0.54967585    -0.15000
C992        C  0.37424513  0.07549825  0.55142966     0.37400
N993        N  0.38545207  0.12847968  0.52785958    -0.89200
H994        H  0.41591950  0.05603025  0.57427073     0.18500
H995        H  0.31056589  0.99042626  0.57449519     0.18500
N996        N  0.33899963  0.93033546  0.62388494    -0.88200
H997        H  0.40758358  0.13953371  0.53221299     0.35800
H998        H  0.37470685  0.17976945  0.53111290     0.40900
H999        H  0.32764879  0.88526579  0.61285900     0.40600
H1000       H  0.32403954  0.96304941  0.63648136     0.35400
C1001       C  0.36014457  0.61932459  0.67628770    -0.26300
C1002       C  0.38898112  0.59611562  0.67194400    -0.14400
C1003       C  0.39562345  0.51865376  0.67426132     0.36300
C1004       C  0.37355393  0.46643687  0.68304857    -0.25700
C1005       C  0.34544900  0.49097336  0.69128376    -0.15000
C1006       C  0.33850014  0.56821463  0.68685361     0.37400
N1007       N  0.31042693  0.59597705  0.69589228    -0.89200
H1008       H  0.35509037  0.67915427  0.67436110     0.18500
H1009       H  0.37899442  0.40725819  0.68660346     0.18500
N1010       N  0.42482849  0.49385558  0.66886419    -0.88200
H1011       H  0.30878087  0.65388771  0.69062141     0.35800
H1012       H  0.30876640  0.59090858  0.72116491     0.40900
H1013       H  0.42976730  0.50543365  0.64457227     0.40600
H1014       H  0.42614265  0.43500451  0.67185916     0.35400
C1015       C  0.70913470  0.93059314  0.92376053    -0.26300
C1016       C  0.69831481  0.89666237  0.95204030    -0.14400
C1017       C  0.66823610  0.87878950  0.95368031     0.36300
C1018       C  0.64905233  0.91199361  0.93114885    -0.25700
C1019       C  0.65975169  0.95920517  0.90636072    -0.15000
C1020       C  0.69013953  0.96172690  0.90076946     0.37400
N1021       N  0.70204663  0.99983432  0.87296453    -0.89200
H1022       H  0.73223618  0.94182039  0.92121972     0.18500
H1023       H  0.62579400  0.90552013  0.93447618     0.18500
N1024       N  0.65720420  0.83413676  0.98028818    -0.88200
H1025       H  0.71475565  0.96111478  0.86040018     0.35800
H1026       H  0.71577376  0.04379045  0.88114166     0.40900
H1027       H  0.66626329  0.74997525  0.45985401     0.40600
H1028       H  0.63455881  0.82825480  0.97851032     0.35400
C1029       C  0.69034674  0.43663822  0.66765347    -0.26300
C1030       C  0.66332563  0.47197054  0.66279628    -0.14400
C1031       C  0.65720840  0.53846702  0.68041360     0.36300
C1032       C  0.67689160  0.56314709  0.70479883    -0.25700
C1033       C  0.70264125  0.52340196  0.71133149    -0.15000
C1034       C  0.70976401  0.46114421  0.69190290     0.37400
N1035       N  0.73552267  0.41853162  0.69860996    -0.89200
H1036       H  0.69574144  0.38617589  0.65411087     0.18500
H1037       H  0.67143919  0.61093290  0.71999087     0.18500
N1038       N  0.63091270  0.57949542  0.67407194    -0.88200
H1039       H  0.74794969  0.41767446  0.67748680     0.35800
H1040       H  0.72927851  0.36265579  0.70413207     0.40900
H1041       H  0.63206922  0.60073049  0.65033079     0.40600
H1042       H  0.62969754  0.62661956  0.68936841     0.35400
C1043       C  0.68021697  0.12446384  0.56406600    -0.26300
C1044       C  0.65233390  0.09897998  0.57308054    -0.14400
C1045       C  0.64579283  0.02074068  0.57267158     0.36300
C1046       C  0.66704945  0.96971724  0.56198711    -0.25700
C1047       C  0.69428139  0.99592093  0.55057864    -0.15000
C1048       C  0.70087004  0.07415510  0.55211553     0.37400
N1049       N  0.72740040  0.10368313  0.53878691    -0.89200
H1050       H  0.68530837  0.18478881  0.56404899     0.18500
H1051       H  0.67082318  0.92092096  0.06701545     0.18500
N1052       N  0.61748801  0.99379391  0.58221407    -0.88200
H1053       H  0.73837089  0.13451684  0.55693151     0.35800
H1054       H  0.72203758  0.14120247  0.51994762     0.40900
H1055       H  0.61507300  0.00650339  0.60684006     0.40600
H1056       H  0.62410588  0.93674341  0.08491075     0.35400
C1057       C  0.30627774  0.49361243  0.98134151    -0.26300
C1058       C  0.29188512  0.55842764  0.99248689    -0.14400
C1059       C  0.30865335  0.62283448  0.00169309     0.36300
C1060       C  0.33912856  0.62185540  0.99860434    -0.25700
C1061       C  0.35342855  0.55869091  0.98577155    -0.15000
C1062       C  0.33667610  0.49338465  0.97761347     0.37400
N1063       N  0.34965641  0.42813811  0.96336905    -0.89200
H1064       H  0.29369604  0.44354047  0.97451874     0.18500
H1065       H  0.35167966  0.67291857  0.00405703     0.18500
N1066       N  0.29429325  0.68806257  0.51954981    -0.88200
H1067       H  0.36551598  0.40781106  0.97949042     0.35800
H1068       H  0.35978888  0.44478168  0.94179642     0.40900
H1069       H  0.28198791  0.71511417  0.50148402     0.40600
H1070       H  0.31026890  0.72713082  0.52720105     0.35400
C1071       C  0.14214890  0.44805350  0.93336370    -0.26300
C1072       C  0.15162289  0.37492116  0.92603076    -0.14400
C1073       C  0.18191014  0.36111781  0.92559513     0.36300
C1074       C  0.20170349  0.41711419  0.93641045    -0.25700
C1075       C  0.19205427  0.48786481  0.94710385    -0.15000
C1076       C  0.16218178  0.50527172  0.94273522     0.37400
N1077       N  0.14972887  0.58227579  0.45181847    -0.89200
H1078       H  0.11910920  0.46041381  0.93252987     0.18500
H1079       H  0.22440838  0.40225961  0.93908003     0.18500
N1080       N  0.19267807  0.28845912  0.91626536    -0.88200
H1081       H  0.14033795  0.60409290  0.43053644     0.35800
H1082       H  0.13340871  0.57803974  0.46928122     0.40900
H1083       H  0.20468752  0.26611079  0.93570958     0.40600
H1084       H  0.20683327  0.29674880  0.89681649     0.35400
C1085       C  0.20000117  0.99307625  0.98229299    -0.26300
C1086       C  0.18826810  0.06479611  0.98838446    -0.14400
C1087       C  0.20702809  0.12419681  0.99882722     0.36300
C1088       C  0.23711588  0.11288225  0.00060374    -0.25700
C1089       C  0.24916610  0.04293437  0.99225375    -0.15000
C1090       C  0.23229656  0.99393913  0.47486427     0.37400
N1091       N  0.24422401  0.92419892  0.46365236    -0.89200
H1092       H  0.18823796  0.95956816  0.46326572     0.17700
H1093       H  0.25123279  0.16006571  0.00752706     0.18500
N1094       N  0.19557593  0.19692129  0.00696406    -0.88200
H1095       H  0.23764230  0.91647504  0.43946066     0.35800
H1096       H  0.23533879  0.87975270  0.47744256     0.40900
H1097       H  0.20551243  0.23793339  0.99219402     0.40600
H1098       H  0.20147343  0.20881203  0.03105070     0.35400
C1099       C  0.71205928  0.13265180  0.77114755    -0.26300
C1100       C  0.69471615  0.06804134  0.77803171    -0.14400
C1101       C  0.70870762  0.99739313  0.78206935     0.36300
C1102       C  0.73944842  0.99369355  0.77965026    -0.25700
C1103       C  0.75659926  0.05906233  0.77358823    -0.15000
C1104       C  0.74242803  0.12915799  0.76913812     0.37400
N1105       N  0.75838208  0.19877072  0.76435511    -0.89200
H1106       H  0.70196517  0.18769520  0.76864975     0.18500
H1107       H  0.75015138  0.93968944  0.78289921     0.18500
N1108       N  0.69194767  0.93025944  0.78967223    -0.88200
H1109       H  0.76972083  0.19591684  0.74256445     0.35800
H1110       H  0.77333803  0.20543340  0.78352797     0.40900
H1111       H  0.68256561  0.93806136  0.81242536     0.40600
H1112       H  0.70551836  0.88330659  0.79197608     0.35400
C1113       C  0.86983567  0.85133415  0.83739347    -0.26300
C1114       C  0.89951503  0.87207543  0.83658386    -0.14400
C1115       C  0.90724373  0.94801392  0.82983856     0.36300
C1116       C  0.88521441  0.99974118  0.82126971    -0.25700
C1117       C  0.85583121  0.97579011  0.81736337    -0.15000
C1118       C  0.84810419  0.90168766  0.82732133     0.37400
N1119       N  0.81864098  0.87474201  0.82443876    -0.89200
H1120       H  0.86351387  0.79324755  0.84301811     0.18500
H1121       H  0.89135955  0.05714475  0.81432369     0.18500
N1122       N  0.93732182  0.97149536  0.83048768    -0.88200
H1123       H  0.81817335  0.82821841  0.80870498     0.35800
H1124       H  0.81199924  0.85585779  0.84735504     0.40900
H1125       H  0.94494862  0.96551302  0.85439816     0.40600
H1126       H  0.93933563  0.02916018  0.82461514     0.35400
C1127       C  0.81226997  0.48703567  0.77994932    -0.26300
C1128       C  0.79427242  0.55047909  0.77653086    -0.14400
C1129       C  0.80704487  0.62314927  0.77301835     0.36300
C1130       C  0.83729686  0.63136186  0.77353113    -0.25700
C1131       C  0.85562380  0.56865990  0.77825522    -0.15000
C1132       C  0.84288318  0.49532502  0.78119890     0.37400
N1133       N  0.86078550  0.43016356  0.78683729    -0.89200
H1134       H  0.80233983  0.43112637  0.78231113     0.18500
H1135       H  0.84652050  0.68819505  0.77165269     0.18500
N1136       N  0.78975977  0.69005114  0.77026454    -0.88200
H1137       H  0.84801650  0.38057525  0.78751324     0.35800
H1138       H  0.87021759  0.43586903  0.80998062     0.40900
H1139       H  0.77629462  0.69271973  0.79054984     0.40600
H1140       H  0.77666736  0.68578506  0.74940442     0.35400
C1141       C  0.30393410  0.85489982  0.74369641    -0.26300
C1142       C  0.29177000  0.92350035  0.73313362    -0.14400
C1143       C  0.31069219  0.98326213  0.72317356     0.36300
C1144       C  0.34091306  0.97178998  0.72256498    -0.25700
C1145       C  0.35286183  0.90155762  0.73139455    -0.15000
C1146       C  0.33412195  0.84314704  0.74284714     0.37400
N1147       N  0.34581626  0.77121683  0.75276329    -0.89200
H1148       H  0.28966356  0.80958028  0.75210524     0.18500
H1149       H  0.35494926  0.01661095  0.71325817     0.18500
N1150       N  0.29998072  0.05622672  0.71377449    -0.88200
H1151       H  0.32919393  0.73398812  0.76007567     0.35800
H1152       H  0.35910151  0.78087716  0.77319038     0.40900
H1153       H  0.28728068  0.07711911  0.73258582     0.40600
H1154       H  0.28698745  0.05009082  0.69294888     0.35400
C1155       C  0.19097601  0.02173626  0.84539964    -0.26300
C1156       C  0.16254099  0.99116874  0.84713561    -0.14400
C1157       C  0.15500949  0.92734507  0.82802372     0.36300
C1158       C  0.17503972  0.90089358  0.80529698    -0.25700
C1159       C  0.20196953  0.93820749  0.80073176    -0.15000
C1160       C  0.21053268  0.99721407  0.82196089     0.37400
N1161       N  0.23792063  0.03654969  0.81788720    -0.89200
H1162       H  0.19730807  0.06952531  0.86053830     0.18500
H1163       H  0.16865042  0.85520570  0.78901051     0.18500
N1164       N  0.12680867  0.89164824  0.83071449    -0.88200
H1165       H  0.24110745  0.07738750  0.83603461     0.35800
H1166       H  0.23693585  0.06624416  0.79584560     0.40900
H1167       H  0.12546737  0.86802533  0.85402719     0.40600
H1168       H  0.12462586  0.84658504  0.81434648     0.35400
C1169       C  0.21060474  0.52075460  0.58277131    -0.26300
C1170       C  0.19987226  0.57465486  0.56082068    -0.14400
C1171       C  0.17143873  0.60228266  0.56496297     0.36300
C1172       C  0.15240682  0.56375756  0.58610963    -0.25700
C1173       C  0.16185262  0.50039330  0.60401432    -0.15000
C1174       C  0.19193854  0.48321222  0.60426049     0.37400
N1175       N  0.20345610  0.42401056  0.62445659    -0.89200
H1176       H  0.23264458  0.50040143  0.58053880     0.18500
H1177       H  0.12985527  0.58063836  0.58719859     0.18500
N1178       N  0.16135781  0.66440699  0.54525692    -0.88200
H1179       H  0.21995195  0.44746964  0.63916363     0.35800
H1180       H  0.21274628  0.38327459  0.60947906     0.40900
H1181       H  0.17389677  0.71229490  0.55152068     0.40600
H1182       H  0.13980761  0.67699325  0.55076406     0.35400
C1183       C  0.16363057  0.97138043  0.68282550    -0.26300
C1184       C  0.19285056  0.99659073  0.68627601    -0.14400
C1185       C  0.20034503  0.06979732  0.67503031     0.36300
C1186       C  0.17848193  0.11854999  0.66402371    -0.25700
C1187       C  0.14888873  0.09754584  0.66582719    -0.15000
C1188       C  0.14141361  0.02199115  0.67373366     0.37400
N1189       N  0.11137204  0.99825228  0.67419483    -0.89200
H1190       H  0.15772607  0.91474039  0.69105605     0.18500
H1191       H  0.18462114  0.17630744  0.65760682     0.18500
N1192       N  0.22957418  0.09829274  0.67831594    -0.88200
H1193       H  0.10955255  0.94110842  0.68102564     0.35800
H1194       H  0.10325924  0.00214875  0.65040750     0.40900
H1195       H  0.22941897  0.14571603  0.69358159     0.40600
H1196       H  0.23657671  0.11610813  0.65541453     0.35400
C1197       C  0.23295530  0.46190258  0.72623109    -0.26300
C1198       C  0.24894667  0.39822187  0.73625684    -0.14400
C1199       C  0.23382718  0.33182150  0.74614119     0.36300
C1200       C  0.20325142  0.33031245  0.74539106    -0.25700
C1201       C  0.18724501  0.39268202  0.73398432    -0.15000
C1202       C  0.20227758  0.45965227  0.72473330     0.37400
N1203       N  0.18653555  0.52293885  0.71157746    -0.89200
H1204       H  0.24448495  0.51324667  0.71903226     0.18500
H1205       H  0.19180914  0.27816636  0.75172680     0.18500
N1206       N  0.24956053  0.26493858  0.75546792    -0.88200
H1207       H  0.20091275  0.56610798  0.70422975     0.35800
H1208       H  0.17419102  0.54539249  0.73032893     0.40900
H1209       H  0.26082089  0.24644484  0.73505082     0.40600
H1210       H  0.23524475  0.22089913  0.76186563     0.35400
C1211       C  0.73136681  0.48069199  0.52315315    -0.26300
C1212       C  0.74760838  0.41675027  0.51458330    -0.14400
C1213       C  0.73273225  0.34861470  0.50638747     0.36300
C1214       C  0.70241732  0.34526285  0.50779296    -0.25700
C1215       C  0.68614630  0.40753503  0.51823309    -0.15000
C1216       C  0.70074703  0.47667034  0.52534358     0.37400
N1217       N  0.68477161  0.54100947  0.53648913    -0.89200
H1218       H  0.74273038  0.53324556  0.52912596     0.18500
H1219       H  0.69155952  0.29129196  0.50301993     0.18500
N1220       N  0.74709389  0.28282674  0.99557785    -0.88200
H1221       H  0.69872608  0.58756914  0.54016142     0.35800
H1222       H  0.67622295  0.52710723  0.55927715     0.40900
H1223       H  0.76281755  0.27410614  0.01373369     0.40600
H1224       H  0.75727849  0.28940777  0.97319945     0.35400
C1225       C  0.86853766  0.39540414  0.95109382    -0.26300
C1226       C  0.84020174  0.42521516  0.95000637    -0.14400
C1227       C  0.83264206  0.47425379  0.92406731     0.36300
C1228       C  0.85420060  0.50034615  0.90314159    -0.25700
C1229       C  0.88356669  0.48027416  0.90755663    -0.15000
C1230       C  0.89038131  0.42338327  0.93046875     0.37400
N1231       N  0.91951354  0.39643874  0.93403429    -0.89200
H1232       H  0.87452628  0.35635695  0.97041699     0.18500
H1233       H  0.84796036  0.54096631  0.88455277     0.18500
N1234       N  0.80392956  0.50356623  0.91958971    -0.88200
H1235       H  0.91907578  0.33766539  0.93044946     0.35800
H1236       H  0.92649168  0.40674768  0.95791840     0.40900
H1237       H  0.79767235  0.53180698  0.94066213     0.40600
H1238       H  0.78958190  0.45854529  0.91464283     0.35400
C1239       C  0.83433015  0.00661792  0.68301290    -0.26300
C1240       C  0.84659219  0.05735165  0.70552955    -0.14400
C1241       C  0.87559662  0.08299949  0.70126851     0.36300
C1242       C  0.89309435  0.04739518  0.67822866    -0.25700
C1243       C  0.88190139  0.98826322  0.65874651    -0.15000
C1244       C  0.85145209  0.97167041  0.65982428     0.37400
N1245       N  0.83728081  0.91647517  0.63933099    -0.89200
H1246       H  0.81198825  0.98720917  0.68566007     0.18500
H1247       H  0.91586889  0.06357718  0.67660975     0.18500
N1248       N  0.88769135  0.14078244  0.72222297    -0.88200
H1249       H  0.84611582  0.86302678  0.64382619     0.35800
H1250       H  0.84006660  0.93216330  0.61500682     0.40900
H1251       H  0.87628944  0.19071514  0.71762376     0.40600
H1252       H  0.90944010  0.15209425  0.71646040     0.35400
C1253       C  0.85916170  0.62593844  0.58420170    -0.26300
C1254       C  0.88820680  0.60203148  0.58596907    -0.14400
C1255       C  0.89432172  0.52473934  0.58129441     0.36300
C1256       C  0.87170125  0.47458136  0.57235014    -0.25700
C1257       C  0.84342410  0.50120579  0.56547476    -0.15000
C1258       C  0.83691823  0.57722366  0.57328663     0.37400
N1259       N  0.80877619  0.60890169  0.56737766    -0.89200
H1260       H  0.85408759  0.68514075  0.58815917     0.18500
H1261       H  0.87703166  0.41637248  0.56665981     0.18500
N1262       N  0.92327806  0.49625280  0.58435577    -0.88200
H1263       H  0.79355782  0.57955130  0.58146343     0.35800
H1264       H  0.80331734  0.60281697  0.54275289     0.40900
H1265       H  0.93135219  0.51023129  0.60745095     0.40600
H1266       H  0.93637347  0.52284331  0.56695375     0.35400
C1267       C  0.83437864  0.82589478  0.51094010    -0.26300
C1268       C  0.85149631  0.89132784  0.51727807    -0.14400
C1269       C  0.83784637  0.96281659  0.51694592     0.36300
C1270       C  0.80730910  0.96641103  0.51248665    -0.25700
C1271       C  0.79016962  0.90021560  0.50825353    -0.15000
C1272       C  0.80404130  0.82945687  0.50653428     0.37400
N1273       N  0.79077015  0.78137785  0.99385007    -0.89200
H1274       H  0.84459284  0.77076070  0.51112713     0.18500
H1275       H  0.79669008  0.02094776  0.51314134     0.18500
N1276       N  0.85466098  0.03104122  0.52251713    -0.88200
H1277       H  0.80380641  0.73469621  0.98887779     0.35800
H1278       H  0.77870125  0.76715089  0.01444087     0.40900
H1279       H  0.86232909  0.02954010  0.54654120     0.40600
H1280       H  0.84144335  0.07876181  0.52055439     0.35400
loop_ 
_geom_bond_atom_site_label_1 
_geom_bond_atom_site_label_2 
_geom_bond_distance 
_geom_bond_site_symmetry_2 
_ccdc_geom_bond_type 
C1            N2   1.366       .  A
C1            N6   1.365       .  A
C1           C65   1.475       .  S
N2            C3   1.360       .  A
C3            N4   1.357       .  A
C3          C762   1.473       .  S
N4            C5   1.357       .  A
C5            N6   1.359       .  A
C5           C22   1.475   1_455  S
O7           C23   1.277       .  A
O7          Zn13   2.016       .  S
C8          C628   1.481       .  S
C8           O24   1.281       .  A
C8           O21   1.268       .  A
O9           C22   1.283   1_565  A
O9          Cd16   2.108       .  S
O10          C28   1.263       .  A
O10         Cd19   2.008       .  S
O11          C25   1.281       .  A
O11         Cd15   2.126       .  S
O12          C23   1.285       .  A
O12         Cd15   2.131       .  S
Zn13         O24   2.081       .  S
Zn13         O26   2.016   1_565  S
Zn13         O18   1.901       .  S
O14          C25   1.264       .  A
O14         Cd19   2.014       .  S
Cd15         O17   2.099       .  S
Cd15         O18   1.993       .  S
Cd16         O20   2.121       .  S
Cd16         O29   2.117       .  S
Cd16         O18   1.978       .  S
O17          C27   1.283       .  A
O18         Cd19   1.924       .  S
Cd19         O21   2.019       .  S
O20          C27   1.287       .  A
C22          O26   1.277       .  A
C23         C759   1.478   1_654  S
C25         C614   1.476       .  S
C27          C39   1.486   1_655  S
C28         C603   1.490       .  S
C28          O29   1.281       .  A
C30         C572   1.492       .  S
C30          C35   1.416       .  A
C30         C671   1.408   1_554  A
C31          C32   1.399       .  A
C31         C670   1.406       .  A
C31          H36   1.080       .  S
C32         C586   1.478       .  S
C32          C33   1.393       .  A
C33         C674   1.396       .  A
C33          H37   1.085       .  S
C34         C617   1.487       .  S
C34          C35   1.410       .  A
C34         C673   1.394       .  A
C35          H38   1.082       .  S
C39          N40   1.368       .  A
C39          N44   1.368   1_455  A
N40          C41   1.363       .  A
C41          N42   1.357       .  A
C41          C60   1.482       .  S
N42          C43   1.356       .  A
C43          N44   1.363   1_455  A
C43          C84   1.475   1_455  S
O45          C61   1.277       .  A
O45         Zn51   2.013       .  S
C46         C561   1.477       .  S
C46          O62   1.282       .  A
C46          O59   1.266       .  A
O47          C60   1.283       .  A
O47         Cd54   2.107       .  S
O48          C66   1.264       .  A
O48         Cd57   1.996       .  S
O49          C63   1.282       .  A
O49         Cd53   2.130       .  S
O50          C61   1.285       .  A
O50         Cd53   2.129       .  S
Zn51         O62   2.087       .  S
Zn51         O64   2.041       .  S
Zn51         O56   1.891       .  S
O52          C63   1.262       .  A
O52         Cd57   2.009       .  S
Cd53         O55   2.085       .  S
Cd53         O56   1.989       .  S
Cd54         O58   2.106       .  S
Cd54         O67   2.114       .  S
Cd54         O56   1.974       .  S
O55          C65   1.283       .  A
O56         Cd57   1.916       .  S
Cd57         O59   2.013       .  S
O58          C65   1.285       .  A
C60          O64   1.281       .  A
C61          C81   1.477       .  S
C63         C547   1.475       .  S
C66         C533   1.479       .  S
C66          O67   1.280       .  A
C68         C502   1.486       .  S
C68          C69   1.415       .  A
C68          C73   1.408       .  A
C69          C70   1.408       .  A
C69          H74   1.082       .  S
C70         C544   1.482   1_565  S
C70          C71   1.394       .  A
C71          C72   1.390       .  A
C71          H75   1.085       .  S
C72         C519   1.474       .  S
C72          C73   1.400       .  A
C73          H76   1.084       .  S
C77          N78   1.365       .  A
C77          N82   1.368       .  A
C77         C142   1.481       .  S
N78          C79   1.360       .  A
C79          N80   1.357       .  A
C79          C98   1.480   1_455  S
N80          C81   1.359       .  A
C81          N82   1.363       .  A
O83          C99   1.284       .  A
O83         Zn89   2.113       .  S
C84         O100   1.279       .  A
C84          O97   1.285       .  A
O85          C98   1.283       .  A
O85         Cd92   2.102       .  S
O86         C104   1.284       .  A
O86         Cd95   2.103       .  S
O87         C101   1.263       .  A
O87         Cd91   2.013       .  S
O88          C99   1.267       .  A
O88         Cd91   2.018       .  S
Zn89        O100   2.027       .  S
Zn89        O102   2.048       .  S
Zn89         O94   1.905       .  S
O90         C101   1.280       .  A
O90         Cd95   2.126       .  S
Cd91         O93   1.995       .  S
Cd91         O94   1.920       .  S
Cd92         O96   2.109       .  S
Cd92        O105   2.123       .  S
Cd92         O94   1.979       .  S
O93         C103   1.265       .  A
O94         Cd95   1.992       .  S
Cd95         O97   2.121       .  S
O96         C103   1.278       .  A
C98         O102   1.282       .  A
C99         C491   1.495       .  S
C101        C474   1.474       .  S
C103        C589   1.483       .  S
C104        C115   1.487   1_655  S
C104        O105   1.287       .  A
C106        C463   1.490       .  S
C106        C107   1.410       .  A
C106        C111   1.415       .  A
C107        C108   1.405       .  A
C107        H112   1.083       .  S
C108        C600   1.482       .  S
C108        C109   1.393       .  A
C109        C110   1.392   1_545  A
C109        H113   1.085   1_545  S
C110        C477   1.485       .  S
C110        C111   1.411   1_565  A
C111        H114   1.083   1_545  S
C115        N116   1.367       .  A
C115        N120   1.368   1_455  A
N116        C117   1.363       .  A
C117        N118   1.358       .  A
C117        C136   1.483       .  S
N118        C119   1.359       .  A
C119        N120   1.363   1_455  A
C119        C663   1.479   1_455  S
O121        C137   1.284       .  A
O121       Zn127   2.097       .  S
C122        C643   1.473       .  S
C122        O138   1.278       .  A
C122        O135   1.283       .  A
O123        C136   1.281       .  A
O123       Cd130   2.102   1_565  S
O124        C142   1.284       .  A
O124       Cd133   2.099       .  S
O125        C139   1.265       .  A
O125       Cd129   2.025       .  S
O126        C137   1.267       .  A
O126       Cd129   2.024       .  S
Zn127       O138   2.024       .  S
Zn127       O140   2.053   1_545  S
Zn127       O132   1.910       .  S
O128        C139   1.281       .  A
O128       Cd133   2.125       .  S
Cd129       O131   2.010       .  S
Cd129       O132   1.941       .  S
Cd130       O134   2.092       .  S
Cd130       O143   2.102       .  S
Cd130       O132   1.983       .  S
O131        C141   1.267       .  A
O132       Cd133   1.988       .  S
Cd133       O135   2.114       .  S
O134        C141   1.277       .  A
C136        O140   1.281       .  A
C137        C446   1.479       .  S
C139        C432   1.483       .  S
C141        C516   1.483   1_545  S
C142        O143   1.283       .  A
C144        C418   1.499       .  S
C144        C149   1.417       .  A
C144        C785   1.409       .  A
C145        C146   1.403       .  A
C145        C784   1.408   1_554  A
C145        H150   1.084       .  S
C146        C530   1.476       .  S
C146        C147   1.394   1_554  A
C147        C788   1.397       .  A
C147        H151   1.082   1_556  S
C148        C435   1.496       .  S
C148        C149   1.413       .  A
C148        C787   1.396       .  A
C149        H152   1.083       .  S
C153        N154   1.367       .  A
C153        N158   1.369       .  A
C153        C218   1.484       .  S
N154        C155   1.360       .  A
C155        N156   1.356       .  A
C155        C891   1.475       .  S
N156        C157   1.357       .  A
C157        N158   1.364       .  A
C157        C174   1.481       .  S
O159        C175   1.282       .  A
O159       Zn165   2.098       .  S
C160        C873   1.475   1_554  S
C160        O176   1.276       .  A
C160        O173   1.286       .  A
O161        C174   1.282       .  A
O161       Cd168   2.109       .  S
O162        C180   1.285       .  A
O162       Cd171   2.110       .  S
O163        C177   1.264       .  A
O163       Cd167   2.012       .  S
O164        C175   1.266       .  A
O164       Cd167   2.016       .  S
Zn165       O176   2.007       .  S
Zn165       O178   2.033       .  S
Zn165       O170   1.907       .  S
O166        C177   1.283       .  A
O166       Cd171   2.135       .  S
Cd167       O169   2.007       .  S
Cd167       O170   1.927       .  S
Cd168       O172   2.105       .  S
Cd168       O181   2.111       .  S
Cd168       O170   1.980       .  S
O169        C179   1.267       .  A
O170       Cd171   1.996       .  S
Cd171       O173   2.132       .  S
O172        C179   1.279       .  A
C174        O178   1.279       .  A
C175        C575   1.483       .  S
C177        C404   1.477       .  S
C179        C390   1.480       .  S
C180        C191   1.484       .  S
C180        O181   1.285       .  A
C182        C631   1.492       .  S
C182        C183   1.418       .  A
C182        C827   1.409   1_554  A
C183        C184   1.410       .  A
C183        H188   1.083       .  S
C184        C407   1.488   1_565  S
C184        C825   1.392       .  A
C185        C186   1.399       .  A
C185        C824   1.394       .  A
C185        H189   1.084       .  S
C186        C376   1.484       .  S
C186        C187   1.407       .  A
C187        C822   1.410       .  A
C187        H190   1.084       .  S
C191        N192   1.366       .  A
C191        N196   1.366       .  A
N192        C193   1.363       .  A
C193        N194   1.358       .  A
C193        C212   1.479       .  S
N194        C195   1.358       .  A
C195        N196   1.361       .  A
C195        C289   1.477       .  S
O197        C213   1.281       .  A
O197       Zn203   2.078       .  S
C198        C271   1.476       .  S
C198        O214   1.276       .  A
C198        O211   1.286       .  A
O199        C212   1.280   1_565  A
O199       Cd206   2.092       .  S
O200        C218   1.285       .  A
O200       Cd209   2.110       .  S
O201        C215   1.267       .  A
O201       Cd205   2.023       .  S
O202        C213   1.268       .  A
O202       Cd205   2.026       .  S
Zn203       O214   2.007       .  S
Zn203       O216   2.041       .  S
Zn203       O208   1.903       .  S
O204        C215   1.284       .  A
O204       Cd209   2.133       .  S
Cd205       O207   2.017       .  S
Cd205       O208   1.938       .  S
Cd206       O210   2.100       .  S
Cd206       O219   2.105       .  S
Cd206       O208   1.974       .  S
O207        C217   1.267       .  A
O208       Cd209   1.988       .  S
Cd209       O211   2.134       .  S
O210        C217   1.278       .  A
C212        O216   1.279   1_545  A
C213        C505   1.477       .  S
C215        C362   1.481       .  S
C217        C348   1.485       .  S
C218        O219   1.285       .  A
C220        C558   1.491       .  S
C220        C221   1.407       .  A
C220        C225   1.418       .  A
C221        C222   1.398       .  A
C221        H226   1.081       .  S
C222        C337   1.477       .  S
C222        C223   1.394       .  A
C223        C224   1.395       .  A
C223        H227   1.085       .  S
C224        C365   1.492       .  S
C224        C225   1.412       .  A
C225        H228   1.083       .  S
C229        N230   1.371       .  A
C229        N234   1.366       .  A
C229        C293   1.491       .  S
N230        C231   1.368       .  A
C231        N232   1.357       .  A
C231        C250   1.486       .  S
N232        C233   1.357       .  A
C233        N234   1.361       .  A
C233        C800   1.475       .  S
O235        C251   1.279       .  A
O235       Zn241   2.028       .  S
C236        C421   1.481       .  S
C236        O252   1.286       .  A
C236        O249   1.267       .  A
O237        C250   1.282       .  A
O237       Cd244   2.099       .  S
O238        C256   1.266       .  A
O238       Cd247   1.999       .  S
O239        C253   1.280       .  A
O239       Cd243   2.117       .  S
O240        C251   1.285       .  A
O240       Cd243   2.125       .  S
Zn241       O252   2.112       .  S
Zn241       O254   2.066       .  S
Zn241       O246   1.905       .  S
O242        C253   1.265       .  A
O242       Cd247   2.019       .  S
Cd243       O245   2.105       .  S
Cd243       O246   1.989       .  S
Cd244       O248   2.104       .  S
Cd244       O257   2.095       .  S
Cd244       O246   1.977       .  S
O245        C255   1.284       .  A
O246       Cd247   1.928       .  S
Cd247       O249   2.016       .  S
O248        C255   1.284       .  A
C250        O254   1.284       .  A
C251        C795   1.479       .  S
C253        C320   1.473       .  S
C255        C267   1.483       .  S
C256        C334   1.480       .  S
C256        O257   1.277       .  A
C258        C449   1.493       .  S
C258        C259   1.415       .  A
C258        C903   1.410       .  A
C259        C260   1.407       .  A
C259        H264   1.082       .  S
C260        C323   1.486   1_545  S
C260        C901   1.395       .  A
C261        C262   1.397   1_556  A
C261        C900   1.394   1_545  A
C261        H265   1.084       .  S
C262        C351   1.483       .  S
C262        C263   1.403       .  A
C263        C898   1.409   1_554  A
C263        H266   1.084       .  S
C267        N268   1.366       .  A
C267        N272   1.366       .  A
N268        C269   1.363       .  A
C269        N270   1.359       .  A
C269        C288   1.481       .  S
N270        C271   1.359       .  A
C271        N272   1.361       .  A
O273        C289   1.279       .  A
O273       Zn279   2.023       .  S
C274        C460   1.498       .  S
C274        O290   1.286       .  A
C274        O287   1.268       .  A
O275        C288   1.281       .  A
O275       Cd282   2.091   1_565  S
O276        C294   1.266       .  A
O276       Cd285   2.010       .  S
O277        C291   1.283       .  A
O277       Cd281   2.132       .  S
O278        C289   1.286       .  A
O278       Cd281   2.127       .  S
Zn279       O290   2.122       .  S
Zn279       O292   2.059   1_545  S
Zn279       O284   1.911       .  S
O280        C291   1.268       .  A
O280       Cd285   2.025       .  S
Cd281       O283   2.115       .  S
Cd281       O284   1.985       .  S
Cd282       O286   2.123       .  S
Cd282       O295   2.106       .  S
Cd282       O284   1.970       .  S
O283        C293   1.285       .  A
O284       Cd285   1.933       .  S
Cd285       O287   2.020       .  S
O286        C293   1.288       .  A
C288        O292   1.282       .  A
C291        C306   1.482       .  S
C294        C379   1.487   1_545  S
C294        O295   1.279       .  A
C296        C488   1.489       .  S
C296        C297   1.415       .  A
C296        C301   1.407       .  A
C297        C298   1.414       .  A
C297        H302   1.082       .  S
C298        C309   1.494       .  S
C298        C299   1.397       .  A
C299        C300   1.393       .  A
C299        H303   1.085       .  S
C300        C393   1.478       .  S
C300        C301   1.403       .  A
C301        H304   1.084       .  S
C305        C306   1.406       .  A
C305        C310   1.398       .  A
C305        H312   1.085       .  S
C306        C307   1.409       .  A
C307        C308   1.405       .  A
C307        N314   1.432       .  S
C308        C309   1.415       .  A
C308        H313   1.084       .  S
C309        C310   1.416       .  A
C310        N311   1.433       .  S
N311        H315   1.044       .  S
N311        H316   1.045       .  S
N314        H317   1.046       .  S
N314        H318   1.045       .  S
C319        C320   1.404       .  A
C319        C324   1.396       .  A
C319        H326   1.085       .  S
C320        C321   1.407       .  A
C321        C322   1.401       .  A
C321        N328   1.432       .  S
C322        C323   1.411       .  A
C322        H327   1.084   1_565  S
C323        C324   1.415       .  A
C324        N325   1.433       .  S
N325        H329   1.043       .  S
N325        H970   1.046       .  S
N328        H331   1.045       .  S
N328        H332   1.045       .  S
H330        N965   1.045       .  S
C333        C334   1.407       .  A
C333        C338   1.388       .  A
C333        H340   1.084       .  S
C334        C335   1.408       .  A
C335        C336   1.403       .  A
C335        N342   1.432       .  S
C336        C337   1.408       .  A
C336        H341   1.084       .  S
C337        C338   1.413       .  A
C338        N339   1.433       .  S
N339        H343   1.044       .  S
N339        H344   1.045       .  S
N342        H345   1.046       .  S
N342        H346   1.045       .  S
C347        C348   1.404   1_545  A
C347        C352   1.406       .  A
C347        H354   1.083       .  S
C348        C349   1.418       .  A
C349        C350   1.397   1_565  A
C349        N356   1.434       .  S
C350        C351   1.399       .  A
C350        H355   1.083       .  S
C351        C352   1.413       .  A
C352        N353   1.437       .  S
N353        H357   1.046       .  S
N353        H358   1.045       .  S
N356        H359   1.045       .  S
N356        H360   1.046       .  S
C361        C362   1.407       .  A
C361        C366   1.402       .  A
C361        H368   1.084       .  S
C362        C363   1.405       .  A
C363        C364   1.409       .  A
C363        N370   1.437       .  S
C364        C365   1.414       .  A
C364        H369   1.084       .  S
C365        C366   1.408       .  A
C366        N367   1.432       .  S
N367        H371   1.046       .  S
N367        H372   1.046       .  S
N370        H373   1.046       .  S
N370        H374   1.045       .  S
C375        C376   1.399       .  A
C375        C380   1.398       .  A
C375        H382   1.084       .  S
C376        C377   1.414       .  A
C377        C378   1.407       .  A
C377        N384   1.437       .  S
C378        C379   1.404       .  A
C378        H383   1.083       .  S
C379        C380   1.419       .  A
C380        N381   1.434   1_565  S
N381        H385   1.046   1_545  S
N381        H386   1.046       .  S
N384        H388   1.046       .  S
N384       H1027   1.045       .  S
H387       N1024   1.045       .  S
C389        C390   1.407       .  A
C389        C394   1.395       .  A
C389        H396   1.084       .  S
C390        C391   1.410       .  A
C391        C392   1.408       .  A
C391        N398   1.437       .  S
C392        C393   1.408       .  A
C392        H397   1.084       .  S
C393        C394   1.405       .  A
C394        N395   1.433       .  S
N395        H399   1.045       .  S
N395        H400   1.046       .  S
N398        H401   1.046       .  S
N398        H402   1.045       .  S
C403        C404   1.408       .  A
C403        C408   1.406       .  A
C403        H410   1.084       .  S
C404        C405   1.403       .  A
C405        C406   1.407   1_545  A
C405        N412   1.437   1_545  S
C406        C407   1.413   1_565  A
C406       H1051   1.084       .  S
C407        C408   1.410       .  A
C408        N409   1.438       .  S
N409        H413   1.046       .  S
N409        H414   1.045       .  S
H411       C1046   1.084       .  S
N412        H415   1.046   1_565  S
N412       H1056   1.046       .  S
H416       N1052   1.046       .  S
C417        C418   1.409       .  A
C417        C422   1.404       .  A
C417        H424   1.083       .  S
C418        C419   1.417       .  A
C419        C420   1.408       .  A
C419       N1066   1.438       .  S
C420        C421   1.405       .  A
C420        H425   1.084       .  S
C421        C422   1.413       .  A
C422        N423   1.433       .  S
N423        H427   1.046       .  S
N423        H428   1.045       .  S
N426       C1059   1.438       .  S
N426        H429   1.046   1_554  S
N426        H430   1.046       .  S
C431        C432   1.400       .  A
C431        C436   1.407       .  A
C431        H438   1.084       .  S
C432        C433   1.416       .  A
C433        C434   1.403       .  A
C433        N440   1.433       .  S
C434        C435   1.402       .  A
C434        H439   1.083       .  S
C435        C436   1.419       .  A
C436       N1077   1.433       .  S
N437       C1076   1.433       .  S
N437        H441   1.045       .  S
N437        H442   1.046       .  S
N440        H443   1.045       .  S
N440        H444   1.046       .  S
C445        C446   1.402       .  A
C445       C1090   1.407   1_545  A
C445       H1092   1.084   1_545  S
C446        C447   1.411       .  A
C447        C448   1.404       .  A
C447        N454   1.433       .  S
C448        C449   1.406       .  A
C448        H453   1.084       .  S
C449       C1090   1.414   1_545  A
C450       C1085   1.409       .  A
C450       C1089   1.413   1_565  A
C450        N451   1.432       .  S
N451        H455   1.046       .  S
N451        H456   1.046       .  S
H452       C1085   1.084       .  S
N454        H457   1.045       .  S
N454        H458   1.045       .  S
C459        C460   1.411       .  A
C459        C464   1.398       .  A
C459        H466   1.084       .  S
C460        C461   1.417   1_545  A
C461        C462   1.417       .  A
C461        N468   1.437       .  S
C462        C463   1.407   1_565  A
C462        H467   1.084       .  S
C463        C464   1.410       .  A
C464        N465   1.433       .  S
N465        H469   1.044       .  S
N465        H470   1.046       .  S
N468        H471   1.046       .  S
N468        H472   1.046       .  S
C473        C474   1.405       .  A
C473        C478   1.396       .  A
C473        H480   1.084       .  S
C474        C475   1.404       .  A
C475        C476   1.410       .  A
C475        N482   1.437       .  S
C476        C477   1.413       .  A
C476        H481   1.084   1_565  S
C477        C478   1.412       .  A
C478        N479   1.433       .  S
N479        H483   1.045       .  S
N479        H484   1.045       .  S
N482        H485   1.046       .  S
N482        H486   1.045   1_565  S
C487        C488   1.407       .  A
C487        C492   1.417       .  A
C487        H494   1.084       .  S
C488        C489   1.409       .  A
C489        C490   1.398       .  A
C489        N496   1.433       .  S
C490        C491   1.410       .  A
C490        H495   1.084       .  S
C491        C492   1.417       .  A
C492        N493   1.437       .  S
N493        H497   1.046       .  S
N493        H498   1.046       .  S
N496        H499   1.046       .  S
N496        H500   1.044       .  S
C501        C502   1.405       .  A
C501        C506   1.405       .  A
C501        H508   1.084       .  S
C502        C503   1.417       .  A
C503        C504   1.401       .  A
C503        N510   1.433   1_565  S
C504        C505   1.402       .  A
C504        H509   1.084   1_565  S
C505        C506   1.412       .  A
C506        N507   1.438       .  S
N507        H511   1.046       .  S
N507        H512   1.046       .  S
N510        H513   1.046       .  S
N510        H514   1.042       .  S
C515        C516   1.410   1_545  A
C515        C520   1.394       .  A
C515        H522   1.084       .  S
C516        C517   1.413       .  A
C517        C518   1.405       .  A
C517        N524   1.437       .  S
C518        C519   1.406       .  A
C518        H523   1.084       .  S
C519        C520   1.403   1_565  A
C520        N521   1.433       .  S
N521        H525   1.046       .  S
N521        H526   1.046       .  S
N524        H527   1.046       .  S
N524        H528   1.045       .  S
C529        C530   1.398       .  A
C529        C534   1.395       .  A
C529        H536   1.084       .  S
C530        C531   1.413       .  A
C531        C532   1.407       .  A
C531        N538   1.437       .  S
C532        C533   1.403       .  A
C532        H537   1.083       .  S
C533        C534   1.417       .  A
C534        N535   1.434       .  S
N535        H539   1.046       .  S
N535        H540   1.046       .  S
N538        H541   1.045       .  S
N538        H542   1.046       .  S
C543        C544   1.411   1_565  A
C543        C548   1.407   1_565  A
C543        H550   1.084       .  S
C544        C545   1.406       .  A
C545        C546   1.401       .  A
C545        N552   1.433       .  S
C546        C547   1.407       .  A
C546        H551   1.085       .  S
C547        C548   1.404       .  A
C548        N549   1.436       .  S
N549        H553   1.046   1_545  S
N549        H554   1.046       .  S
N552        H555   1.044       .  S
N552        H556   1.047       .  S
C557        C558   1.407       .  A
C557        C562   1.410       .  A
C557        H564   1.083       .  S
C558        C559   1.412       .  A
C559        C560   1.401       .  A
C559        N566   1.433       .  S
C560        C561   1.404       .  A
C560        H565   1.084       .  S
C561        C562   1.411       .  A
C562        N563   1.437       .  S
N563        H567   1.045       .  S
N563        H568   1.046       .  S
N566        H569   1.043       .  S
N566        H570   1.047       .  S
C571        C572   1.408       .  A
C571        C576   1.410       .  A
C571        H578   1.084       .  S
C572        C573   1.417       .  A
C573        C574   1.398       .  A
C573       N1220   1.433   1_554  S
C574        C575   1.406       .  A
C574        H579   1.085       .  S
C575        C576   1.409       .  A
C576        N577   1.432       .  S
N577        H581   1.045       .  S
N577        H582   1.046       .  S
N580       C1213   1.434       .  S
N580        H583   1.045       .  S
N580        H584   1.043       .  S
C585        C586   1.409       .  A
C585        C590   1.404       .  A
C585        H592   1.084       .  S
C586        C587   1.412       .  A
C587        C588   1.390       .  A
C587        N594   1.433       .  S
C588        C589   1.410       .  A
C588        H593   1.084       .  S
C589        C590   1.408       .  A
C590        N591   1.432       .  S
N591        H595   1.046       .  S
N591        H596   1.046       .  S
N594        H597   1.044       .  S
N594        H598   1.045       .  S
C599        C600   1.397   1_565  A
C599        C604   1.397       .  A
C599        H606   1.084       .  S
C600        C601   1.413       .  A
C601        C602   1.404       .  A
C601        N608   1.438       .  S
C602        C603   1.404   1_545  A
C602        H607   1.083       .  S
C603        C604   1.428       .  A
C604        N605   1.434       .  S
N605        H609   1.045       .  S
N605        H610   1.045       .  S
N608        H611   1.045       .  S
N608        H612   1.045       .  S
C613        C614   1.406       .  A
C613        C618   1.397       .  A
C613        H620   1.085       .  S
C614        C615   1.407       .  A
C615        C616   1.402       .  A
C615        N622   1.432       .  S
C616        C617   1.413       .  A
C616        H621   1.084       .  S
C617        C618   1.413       .  A
C618        N619   1.433       .  S
N619        H623   1.045       .  S
N619        H624   1.045       .  S
N622        H625   1.045       .  S
N622        H626   1.045       .  S
C627        C628   1.404       .  A
C627        C632   1.403       .  A
C627        H634   1.084   1_554  S
C628        C629   1.413       .  A
C629        C630   1.411       .  A
C629        N636   1.438   1_565  S
C630        C631   1.407       .  A
C630        H635   1.084   1_565  S
C631        C632   1.414       .  A
C632       N1273   1.439   1_554  S
N633       C1272   1.439       .  S
N633        H637   1.046       .  S
N633        H638   1.045       .  S
N636        H639   1.046       .  S
N636        H640   1.046       .  S
C641        N642   1.364       .  A
C641        N646   1.367       .  A
C641        C705   1.481       .  S
N642        C643   1.360       .  A
C643        N644   1.358       .  A
N644        C645   1.359       .  A
C645        N646   1.363       .  A
C645        C662   1.482   1_455  S
O647        C663   1.279       .  A
O647       Zn653   2.033       .  S
C648       C1268   1.493       .  S
C648        O664   1.286       .  A
C648        O661   1.268       .  A
O649        C662   1.283   1_565  A
O649       Cd656   2.105       .  S
O650        C668   1.263       .  A
O650       Cd659   2.005       .  S
O651        C665   1.281       .  A
O651       Cd655   2.117       .  S
O652        C663   1.284       .  A
O652       Cd655   2.120       .  S
Zn653       O664   2.121       .  S
Zn653       O666   2.051   1_565  S
Zn653       O658   1.913       .  S
O654        C665   1.266       .  A
O654       Cd659   2.019       .  S
Cd655       O657   2.100       .  S
Cd655       O658   1.990       .  S
Cd656       O660   2.123       .  S
Cd656       O669   2.107       .  S
Cd656       O658   1.978       .  S
O657        C667   1.282       .  A
O658       Cd659   1.928       .  S
Cd659       O661   2.017       .  S
O660        C667   1.287       .  A
C662        O666   1.282       .  A
C665       C1254   1.476       .  S
C667        C679   1.488   1_655  S
C668       C1243   1.488       .  S
C668        O669   1.280       .  A
C670       C1212   1.485       .  S
C670        C675   1.413       .  A
C671        C672   1.402       .  A
C671        H676   1.079       .  S
C672       C1226   1.484       .  S
C672        C673   1.394   1_556  A
C673        H677   1.085       .  S
C674       C1257   1.486       .  S
C674        C675   1.409       .  A
C675        H678   1.082       .  S
C679        N680   1.370       .  A
C679        N684   1.367   1_455  A
N680        C681   1.365       .  A
C681        N682   1.358       .  A
C681        C700   1.485       .  S
N682        C683   1.357       .  A
C683        N684   1.362   1_455  A
C683        C724   1.475   1_455  S
O685        C701   1.277       .  A
O685       Zn691   2.012       .  S
C686       C1201   1.481       .  S
C686        O702   1.283       .  A
C686        O699   1.266       .  A
O687        C700   1.282       .  A
O687       Cd694   2.103       .  S
O688        C706   1.266       .  A
O688       Cd697   2.015       .  S
O689        C703   1.282       .  A
O689       Cd693   2.131       .  S
O690        C701   1.286       .  A
O690       Cd693   2.131       .  S
Zn691       O702   2.094       .  S
Zn691       O704   2.052       .  S
Zn691       O696   1.899       .  S
O692        C703   1.267       .  A
O692       Cd697   2.024       .  S
Cd693       O695   2.093       .  S
Cd693       O696   1.987       .  S
Cd694       O698   2.113       .  S
Cd694       O707   2.109       .  S
Cd694       O696   1.971       .  S
O695        C705   1.283       .  A
O696       Cd697   1.923       .  S
Cd697       O699   2.015       .  S
O698        C705   1.287       .  A
C700        O704   1.282       .  A
C701        C721   1.477       .  S
C703       C1187   1.483       .  S
C706       C1173   1.487       .  S
C706        O707   1.280       .  A
C708       C1142   1.491       .  S
C708        C709   1.416       .  A
C708        C713   1.408       .  A
C709        C710   1.413       .  A
C709        H714   1.082       .  S
C710       C1184   1.491       .  S
C710        C711   1.395       .  A
C711        C712   1.392       .  A
C711        H715   1.085       .  S
C712       C1159   1.477       .  S
C712        C713   1.401       .  A
C713        H716   1.084       .  S
C717        N718   1.366       .  A
C717        N722   1.367       .  A
C717        C782   1.484       .  S
N718        C719   1.362       .  A
C719        N720   1.358       .  A
C719        C738   1.481   1_455  S
N720        C721   1.359       .  A
C721        N722   1.363       .  A
O723        C739   1.283       .  A
O723       Zn729   2.092       .  S
C724        O740   1.278       .  A
C724        O737   1.285       .  A
O725        C738   1.281       .  A
O725       Cd732   2.097       .  S
O726        C744   1.284       .  A
O726       Cd735   2.096   1_455  S
O727        C741   1.265       .  A
O727       Cd731   2.022       .  S
O728        C739   1.268       .  A
O728       Cd731   2.014       .  S
Zn729       O740   2.020       .  S
Zn729       O742   2.050       .  S
Zn729       O734   1.903       .  S
O730        C741   1.282       .  A
O730       Cd735   2.137       .  S
Cd731       O733   2.007       .  S
Cd731       O734   1.926       .  S
Cd732       O736   2.105       .  S
Cd732       O745   2.100       .  S
Cd732       O734   1.975       .  S
O733        C743   1.267       .  A
O734       Cd735   1.987       .  S
Cd735       O737   2.125       .  S
O736        C743   1.278       .  A
C738        O742   1.281       .  A
C739       C1131   1.488       .  S
C741       C1114   1.484       .  S
C743       C1229   1.486       .  S
C744        C755   1.478       .  S
C744        O745   1.284   1_455  A
C746       C1103   1.498       .  S
C746        C747   1.409       .  A
C746        C751   1.418       .  A
C747        C748   1.405       .  A
C747        H752   1.083       .  S
C748       C1240   1.483       .  S
C748        C749   1.394       .  A
C749        C750   1.396       .  A
C749        H753   1.084       .  S
C750       C1117   1.498   1_545  S
C750        C751   1.417       .  A
C751        H754   1.083       .  S
C755        N756   1.365       .  A
C755        N760   1.368       .  A
N756        C757   1.360       .  A
C757        N758   1.358       .  A
C757        C776   1.478       .  S
N758        C759   1.358       .  A
C759        N760   1.362       .  A
O761        C777   1.281       .  A
O761       Zn767   2.084       .  S
C762        O778   1.277   1_554  A
C762        O775   1.284   1_554  A
O763        C776   1.282       .  A
O763       Cd770   2.107   1_565  S
O764        C782   1.284       .  A
O764       Cd773   2.103       .  S
O765        C779   1.266       .  A
O765       Cd769   2.024       .  S
O766        C777   1.267       .  A
O766       Cd769   2.018       .  S
Zn767       O778   2.017       .  S
Zn767       O780   2.027   1_545  S
Zn767       O772   1.909       .  S
O768        C779   1.281       .  A
O768       Cd773   2.126       .  S
Cd769       O771   2.013       .  S
Cd769       O772   1.932       .  S
Cd770       O774   2.095       .  S
Cd770       O783   2.109       .  S
Cd770       O772   1.982       .  S
O771        C781   1.268       .  A
O772       Cd773   1.990       .  S
Cd773       O775   2.119       .  S
O774        C781   1.278       .  A
C776        O780   1.277       .  A
C777       C1086   1.479       .  S
C779       C1072   1.484       .  S
C781       C1156   1.482   1_545  S
C782        O783   1.285       .  A
C784       C1058   1.495       .  S
C784        C789   1.416       .  A
C785        C786   1.403       .  A
C785        H790   1.083       .  S
C786       C1170   1.481       .  S
C786        C787   1.396       .  A
C787        H791   1.082       .  S
C788       C1075   1.497       .  S
C788        C789   1.415       .  A
C789        H792   1.083       .  S
C793        N794   1.367       .  A
C793        N798   1.370       .  A
C793        C858   1.489       .  S
N794        C795   1.362       .  A
C795        N796   1.358       .  A
N796        C797   1.359       .  A
C797        N798   1.366       .  A
C797        C814   1.487       .  S
O799        C815   1.283       .  A
O799       Zn805   2.098       .  S
C800        O816   1.278       .  A
C800        O813   1.283       .  A
O801        C814   1.283       .  A
O801       Cd808   2.116       .  S
O802        C820   1.284       .  A
O802       Cd811   2.103       .  S
O803        C817   1.266       .  A
O803       Cd807   2.026       .  S
O804        C815   1.265       .  A
O804       Cd807   2.004       .  S
Zn805       O816   2.024       .  S
Zn805       O818   2.050       .  S
Zn805       O810   1.916       .  S
O806        C817   1.280       .  A
O806       Cd811   2.125       .  S
Cd807       O809   2.021       .  S
Cd807       O810   1.939       .  S
Cd808       O812   2.108       .  S
Cd808       O821   2.108       .  S
Cd808       O810   1.984       .  S
O809        C819   1.269       .  A
O810       Cd811   1.995       .  S
Cd811       O813   2.117       .  S
O812        C819   1.279       .  A
C814        O818   1.281       .  A
C815       C1215   1.479       .  S
C817       C1044   1.478       .  S
C819       C1030   1.484       .  S
C820        C831   1.483       .  S
C820        O821   1.285       .  A
C822       C1271   1.492       .  S
C822        C823   1.413       .  A
C823        C824   1.410       .  A
C823        H828   1.083       .  S
C824       C1047   1.489       .  S
C825        C826   1.394   1_554  A
C825        H829   1.084       .  S
C826       C1016   1.482       .  S
C826        C827   1.402       .  A
C827        H830   1.083       .  S
C831        N832   1.366       .  A
C831        N836   1.367       .  A
N832        C833   1.363       .  A
C833        N834   1.360       .  A
C833        C852   1.485       .  S
N834        C835   1.361       .  A
C835        N836   1.362       .  A
C835        C929   1.481       .  S
O837        C853   1.285       .  A
O837       Zn843   2.109       .  S
C838        C911   1.477       .  S
C838        O854   1.279       .  A
C838        O851   1.285       .  A
O839        C852   1.283   1_565  A
O839       Cd846   2.106       .  S
O840        C858   1.284       .  A
O840       Cd849   2.108       .  S
O841        C855   1.266       .  A
O841       Cd845   2.020       .  S
O842        C853   1.267       .  A
O842       Cd845   2.021       .  S
Zn843       O854   2.025       .  S
Zn843       O856   2.054   1_565  S
Zn843       O848   1.912       .  S
O844        C855   1.282       .  A
O844       Cd849   2.127       .  S
Cd845       O847   2.013       .  S
Cd845       O848   1.934       .  S
Cd846       O850   2.104       .  S
Cd846       O859   2.121       .  S
Cd846       O848   1.976       .  S
O847        C857   1.266       .  A
O848       Cd849   1.990       .  S
Cd849       O851   2.126       .  S
O850        C857   1.280       .  A
C852        O856   1.281       .  A
C853       C1145   1.486       .  S
C855       C1002   1.477       .  S
C857        C988   1.486       .  S
C858        O859   1.287       .  A
C860       C1198   1.490       .  S
C860        C861   1.408       .  A
C860        C865   1.416       .  A
C861        C862   1.400       .  A
C861        H866   1.083       .  S
C862        C977   1.475       .  S
C862        C863   1.392       .  A
C863        C864   1.393       .  A
C863        H867   1.085       .  S
C864       C1005   1.488       .  S
C864        C865   1.411       .  A
C865        H868   1.083       .  S
C869        N870   1.371       .  A
C869        N874   1.366       .  A
C869        C933   1.490       .  S
N870        C871   1.367       .  A
C871        N872   1.358       .  A
C871        C890   1.488       .  S
N872        C873   1.358       .  A
C873        N874   1.360       .  A
O875        C891   1.278   1_556  A
O875       Zn881   2.018       .  S
C876       C1061   1.485       .  S
C876        O892   1.285       .  A
C876        O889   1.266       .  A
O877        C890   1.282       .  A
O877       Cd884   2.108       .  S
O878        C896   1.266       .  A
O878       Cd887   2.000       .  S
O879        C893   1.281       .  A
O879       Cd883   2.126       .  S
O880        C891   1.285   1_556  A
O880       Cd883   2.125       .  S
Zn881       O892   2.116       .  S
Zn881       O894   2.064       .  S
Zn881       O886   1.913       .  S
O882        C893   1.265       .  A
O882       Cd887   2.022       .  S
Cd883       O885   2.113       .  S
Cd883       O886   1.996       .  S
Cd884       O888   2.114       .  S
Cd884       O897   2.103       .  S
Cd884       O886   1.984       .  S
O885        C895   1.285       .  A
O886       Cd887   1.932       .  S
Cd887       O889   2.015       .  S
O888        C895   1.286       .  A
C890        O894   1.284       .  A
C893        C960   1.476       .  S
C895        C907   1.488       .  S
C896        C974   1.481       .  S
C896        O897   1.278       .  A
C898       C1089   1.489       .  S
C898        C899   1.414       .  A
C899        C900   1.408   1_545  A
C899        H904   1.082   1_545  S
C900        C963   1.486       .  S
C901        C902   1.395       .  A
C901        H905   1.085       .  S
C902        C991   1.481       .  S
C902        C903   1.403       .  A
C903        H906   1.083       .  S
C907        N908   1.368       .  A
C907        N912   1.366       .  A
N908        C909   1.366       .  A
C909        N910   1.358       .  A
C909        C928   1.484       .  S
N910        C911   1.359       .  A
C911        N912   1.361       .  A
O913        C929   1.280       .  A
O913       Zn919   2.036       .  S
C914       C1100   1.500       .  S
C914        O930   1.289       .  A
C914        O927   1.268       .  A
O915        C928   1.280       .  A
O915       Cd922   2.086   1_565  S
O916        C934   1.265       .  A
O916       Cd925   2.004       .  S
O917        C931   1.283       .  A
O917       Cd921   2.130       .  S
O918        C929   1.287       .  A
O918       Cd921   2.133       .  S
Zn919       O930   2.145       .  S
Zn919       O932   2.075   1_545  S
Zn919       O924   1.913       .  S
O920        C931   1.266       .  A
O920       Cd925   2.019       .  S
Cd921       O923   2.114       .  S
Cd921       O924   1.986       .  S
Cd922       O926   2.114       .  S
Cd922       O935   2.094       .  S
Cd922       O924   1.970       .  S
O923        C933   1.284       .  A
O924       Cd925   1.927       .  S
Cd925       O927   2.020       .  S
O926        C933   1.286       .  A
C928        O932   1.285       .  A
C931        C946   1.481       .  S
C934       C1019   1.480   1_545  S
C934        O935   1.278       .  A
C936       C1128   1.480       .  S
C936        C937   1.412       .  A
C936        C941   1.404       .  A
C937        C938   1.411       .  A
C937        H942   1.082       .  S
C938        C949   1.490       .  S
C938        C939   1.401       .  A
C939        C940   1.392       .  A
C939        H943   1.085       .  S
C940       C1033   1.474       .  S
C940        C941   1.398       .  A
C941        H944   1.084       .  S
C945        C946   1.408       .  A
C945        C950   1.398       .  A
C945        H952   1.084       .  S
C946        C947   1.409       .  A
C947        C948   1.402       .  A
C947        N954   1.432       .  S
C948        C949   1.412       .  A
C948        H953   1.084       .  S
C949        C950   1.415       .  A
C950        N951   1.433       .  S
N951        H955   1.045       .  S
N951        H956   1.045       .  S
N954        H957   1.046       .  S
N954        H958   1.044       .  S
C959        C960   1.404       .  A
C959        C964   1.397       .  A
C959        H966   1.084       .  S
C960        C961   1.407       .  A
C961        C962   1.404       .  A
C961        N968   1.432       .  S
C962        C963   1.412       .  A
C962        H967   1.084   1_565  S
C963        C964   1.414       .  A
C964        N965   1.433       .  S
N965        H969   1.044       .  S
N968        H971   1.045       .  S
N968        H972   1.045       .  S
C973        C974   1.407       .  A
C973        C978   1.388       .  A
C973        H980   1.084       .  S
C974        C975   1.409       .  A
C975        C976   1.405       .  A
C975        N982   1.432       .  S
C976        C977   1.408       .  A
C976        H981   1.084       .  S
C977        C978   1.413       .  A
C978        N979   1.434       .  S
N979        H983   1.042       .  S
N979        H984   1.048       .  S
N982        H985   1.046       .  S
N982        H986   1.045       .  S
C987        C988   1.404   1_545  A
C987        C992   1.405       .  A
C987        H994   1.083       .  S
C988        C989   1.419       .  A
C989        C990   1.398   1_565  A
C989        N996   1.434       .  S
C990        C991   1.398       .  A
C990        H995   1.084   1_545  S
C991        C992   1.413       .  A
C992        N993   1.437       .  S
N993        H997   1.046       .  S
N993        H998   1.045       .  S
N996        H999   1.046       .  S
N996       H1000   1.046       .  S
C1001      C1002   1.405       .  A
C1001      C1006   1.404       .  A
C1001      H1008   1.084       .  S
C1002      C1003   1.404       .  A
C1003      C1004   1.409       .  A
C1003      N1010   1.437       .  S
C1004      C1005   1.413       .  A
C1004      H1009   1.084       .  S
C1005      C1006   1.412       .  A
C1006      N1007   1.439       .  S
N1007      H1011   1.045       .  S
N1007      H1012   1.046       .  S
N1010      H1013   1.046       .  S
N1010      H1014   1.046       .  S
C1015      C1016   1.399       .  A
C1015      C1020   1.395       .  A
C1015      H1022   1.083       .  S
C1016      C1017   1.415       .  A
C1017      C1018   1.403       .  A
C1017      N1024   1.438       .  S
C1018      C1019   1.402       .  A
C1018      H1023   1.083       .  S
C1019      C1020   1.418       .  A
C1020      N1021   1.434       .  S
N1021      H1025   1.046       .  S
N1021      H1026   1.046   1_565  S
N1024      H1028   1.046       .  S
C1029      C1030   1.408       .  A
C1029      C1034   1.396       .  A
C1029      H1036   1.084       .  S
C1030      C1031   1.413       .  A
C1031      C1032   1.408       .  A
C1031      N1038   1.437       .  S
C1032      C1033   1.405       .  A
C1032      H1037   1.084       .  S
C1033      C1034   1.404       .  A
C1034      N1035   1.433       .  S
N1035      H1039   1.045       .  S
N1035      H1040   1.046       .  S
N1038      H1041   1.046       .  S
N1038      H1042   1.046       .  S
C1043      C1044   1.405       .  A
C1043      C1048   1.401       .  A
C1043      H1050   1.085       .  S
C1044      C1045   1.406       .  A
C1045      C1046   1.411   1_545  A
C1045      N1052   1.437   1_545  S
C1046      C1047   1.412       .  A
C1047      C1048   1.408   1_565  A
C1048      N1049   1.433       .  S
N1049      H1053   1.045       .  S
N1049      H1054   1.046       .  S
N1052      H1055   1.045   1_565  S
C1057      C1058   1.408       .  A
C1057      C1062   1.407       .  A
C1057      H1064   1.084       .  S
C1058      C1059   1.413   1_556  A
C1059      C1060   1.408   1_554  A
C1060      C1061   1.407       .  A
C1060      H1065   1.084   1_556  S
C1061      C1062   1.414       .  A
C1062      N1063   1.432       .  S
N1063      H1067   1.045       .  S
N1063      H1068   1.046       .  S
N1066      H1069   1.046       .  S
N1066      H1070   1.046       .  S
C1071      C1072   1.400       .  A
C1071      C1076   1.407       .  A
C1071      H1078   1.084       .  S
C1072      C1073   1.416       .  A
C1073      C1074   1.402       .  A
C1073      N1080   1.433       .  S
C1074      C1075   1.402       .  A
C1074      H1079   1.083       .  S
C1075      C1076   1.420       .  A
N1077      H1081   1.045       .  S
N1077      H1082   1.046       .  S
N1080      H1083   1.045       .  S
N1080      H1084   1.045       .  S
C1085      C1086   1.404   1_565  A
C1086      C1087   1.411       .  A
C1087      C1088   1.400   1_556  A
C1087      N1094   1.433   1_556  S
C1088      C1089   1.403   1_554  A
C1088      H1093   1.084       .  S
C1090      N1091   1.432       .  S
N1091      H1095   1.045       .  S
N1091      H1096   1.046       .  S
N1094      H1097   1.045   1_554  S
N1094      H1098   1.045       .  S
C1099      C1100   1.410       .  A
C1099      C1104   1.401       .  A
C1099      H1106   1.084       .  S
C1100      C1101   1.416   1_545  A
C1101      C1102   1.419       .  A
C1101      N1108   1.437       .  S
C1102      C1103   1.409   1_565  A
C1102      H1107   1.084       .  S
C1103      C1104   1.414       .  A
C1104      N1105   1.434       .  S
N1105      H1109   1.043       .  S
N1105      H1110   1.046       .  S
N1108      H1111   1.045       .  S
N1108      H1112   1.046       .  S
C1113      C1114   1.407       .  A
C1113      C1118   1.402       .  A
C1113      H1120   1.084       .  S
C1114      C1115   1.406       .  A
C1115      C1116   1.412       .  A
C1115      N1122   1.437       .  S
C1116      C1117   1.416       .  A
C1116      H1121   1.084   1_565  S
C1117      C1118   1.408       .  A
C1118      N1119   1.432       .  S
N1119      H1123   1.046       .  S
N1119      H1124   1.046       .  S
N1122      H1125   1.045       .  S
N1122      H1126   1.046   1_565  S
C1127      C1128   1.405       .  A
C1127      C1132   1.412       .  A
C1127      H1134   1.084       .  S
C1128      C1129   1.408       .  A
C1129      C1130   1.395       .  A
C1129      N1136   1.433       .  S
C1130      C1131   1.409       .  A
C1130      H1135   1.084       .  S
C1131      C1132   1.416       .  A
C1132      N1133   1.437       .  S
N1133      H1137   1.046       .  S
N1133      H1138   1.046       .  S
N1136      H1139   1.046       .  S
N1136      H1140   1.044       .  S
C1141      C1142   1.403       .  A
C1141      C1146   1.406       .  A
C1141      H1148   1.084       .  S
C1142      C1143   1.418       .  A
C1143      C1144   1.406       .  A
C1143      N1150   1.432   1_565  S
C1144      C1145   1.405       .  A
C1144      H1149   1.084   1_565  S
C1145      C1146   1.415       .  A
C1146      N1147   1.438       .  S
N1147      H1151   1.046       .  S
N1147      H1152   1.046       .  S
N1150      H1153   1.045       .  S
N1150      H1154   1.043       .  S
C1155      C1156   1.409   1_545  A
C1155      C1160   1.399   1_545  A
C1155      H1162   1.083       .  S
C1156      C1157   1.411       .  A
C1157      C1158   1.404       .  A
C1157      N1164   1.437       .  S
C1158      C1159   1.407       .  A
C1158      H1163   1.084       .  S
C1159      C1160   1.409       .  A
C1160      N1161   1.439   1_565  S
N1161      H1165   1.046       .  S
N1161      H1166   1.045       .  S
N1164      H1167   1.046       .  S
N1164      H1168   1.046       .  S
C1169      C1170   1.398       .  A
C1169      C1174   1.397       .  A
C1169      H1176   1.084       .  S
C1170      C1171   1.413       .  A
C1171      C1172   1.406       .  A
C1171      N1178   1.437       .  S
C1172      C1173   1.405       .  A
C1172      H1177   1.083       .  S
C1173      C1174   1.419       .  A
C1174      N1175   1.433       .  S
N1175      H1179   1.046       .  S
N1175      H1180   1.046       .  S
N1178      H1181   1.046       .  S
N1178      H1182   1.045       .  S
C1183      C1184   1.414       .  A
C1183      C1188   1.410   1_565  A
C1183      H1190   1.084       .  S
C1184      C1185   1.407   1_565  A
C1185      C1186   1.400       .  A
C1185      N1192   1.432       .  S
C1186      C1187   1.407       .  A
C1186      H1191   1.084       .  S
C1187      C1188   1.407       .  A
C1188      N1189   1.437   1_545  S
N1189      H1193   1.046       .  S
N1189      H1194   1.045   1_565  S
N1192      H1195   1.047       .  S
N1192      H1196   1.044       .  S
C1197      C1198   1.407       .  A
C1197      C1202   1.410       .  A
C1197      H1204   1.084       .  S
C1198      C1199   1.413       .  A
C1199      C1200   1.405       .  A
C1199      N1206   1.439       .  S
C1200      C1201   1.406       .  A
C1200      H1205   1.084       .  S
C1201      C1202   1.412       .  A
C1202      N1203   1.437       .  S
N1203      H1207   1.046       .  S
N1203      H1208   1.045       .  S
N1206      H1209   1.047       .  S
N1206      H1210   1.045       .  S
C1211      C1212   1.407       .  A
C1211      C1216   1.411       .  A
C1211      H1218   1.084       .  S
C1212      C1213   1.413       .  A
C1213      C1214   1.395       .  A
C1214      C1215   1.407       .  A
C1214      H1219   1.085       .  S
C1215      C1216   1.412       .  A
C1216      N1217   1.438       .  S
N1217      H1221   1.044       .  S
N1217      H1222   1.047       .  S
N1220      H1223   1.045   1_556  S
N1220      H1224   1.043       .  S
C1225      C1226   1.411       .  A
C1225      C1230   1.404       .  A
C1225      H1232   1.084       .  S
C1226      C1227   1.413       .  A
C1227      C1228   1.392       .  A
C1227      N1234   1.433       .  S
C1228      C1229   1.409       .  A
C1228      H1233   1.084       .  S
C1229      C1230   1.408       .  A
C1230      N1231   1.432       .  S
N1231      H1235   1.046       .  S
N1231      H1236   1.045       .  S
N1234      H1237   1.046       .  S
N1234      H1238   1.043       .  S
C1239      C1240   1.398       .  A
C1239      C1244   1.394   1_545  A
C1239      H1246   1.084   1_545  S
C1240      C1241   1.414       .  A
C1241      C1242   1.405       .  A
C1241      N1248   1.438       .  S
C1242      C1243   1.404   1_545  A
C1242      H1247   1.083       .  S
C1243      C1244   1.426       .  A
C1244      N1245   1.433       .  S
N1245      H1249   1.045       .  S
N1245      H1250   1.046       .  S
N1248      H1251   1.045       .  S
N1248      H1252   1.046       .  S
C1253      C1254   1.406       .  A
C1253      C1258   1.396       .  A
C1253      H1260   1.085       .  S
C1254      C1255   1.408       .  A
C1255      C1256   1.401       .  A
C1255      N1262   1.432       .  S
C1256      C1257   1.412       .  A
C1256      H1261   1.084       .  S
C1257      C1258   1.415       .  A
C1258      N1259   1.433       .  S
N1259      H1263   1.043       .  S
N1259      H1264   1.046       .  S
N1262      H1265   1.045       .  S
N1262      H1266   1.045       .  S
C1267      C1268   1.409       .  A
C1267      C1272   1.406       .  A
C1267      H1274   1.084       .  S
C1268      C1269   1.414       .  A
C1269      C1270   1.415       .  A
C1269      N1276   1.437   1_565  S
C1270      C1271   1.408       .  A
C1270      H1275   1.084   1_565  S
C1271      C1272   1.410       .  A
N1273      H1277   1.046       .  S
N1273      H1278   1.045   1_556  S
N1276      H1279   1.045       .  S
N1276      H1280   1.046       .  S
