geometry optimzed in LAMMPS
_audit_creation_date              2020-11-30 
_audit_creation_method            'lammps2cif' 
_symmetry_space_group_name_H-M    'P1' 
_symmetry_Int_Tables_number       1 
_symmetry_cell_setting            triclinic 
loop_ 
_symmetry_equiv_pos_as_xyz 
  x,y,z 
_cell_length_a                    43.48252992 
_cell_length_b                    56.78144004074572 
_cell_length_c                    28.100479120662285 
_cell_angle_alpha                 89.64827269856332 
_cell_angle_beta                  89.97962458127085 
_cell_angle_gamma                 84.61219319447056 
loop_ 
_atom_site_label 
_atom_site_type_symbol 
_atom_site_fract_x 
_atom_site_fract_y 
_atom_site_fract_z 
_atom_site_charge 
N1          N  0.16754637  0.45500015  0.34054220    -0.26800
N2          N  0.19091908  0.44002550  0.35441504    -0.34600
C3          C  0.21130700  0.43692239  0.31847603     0.01600
C4          C  0.20031189  0.45094512  0.28053599     0.07600
C5          C  0.17246874  0.46212424  0.29571712    -0.05500
H6          H  0.23267522  0.42553748  0.31999394     0.08300
H7          H  0.15669227  0.47417672  0.27548158     0.09500
Cu8        Cu  0.19317146  0.42520854  0.42214941     0.44200
Cu9        Cu  0.12977568  0.46384975  0.38309134     0.42000
Cu10       Cu  0.12671775  0.43762016  0.50205785     0.43900
N11         N  0.19056859  0.41158072  0.49062745    -0.34200
N12         N  0.16680490  0.41548115  0.51990711    -0.28400
C13         C  0.17276250  0.40235897  0.55976592    -0.04500
C14         C  0.20139762  0.38939767  0.55495732     0.07700
C15         C  0.21202665  0.39617156  0.51092871     0.01500
H16         H  0.15692630  0.40160950  0.58934673     0.09200
H17         H  0.23374851  0.39014131  0.49424833     0.08200
N18         N  0.09062508  0.46010048  0.47125865    -0.35600
N19         N  0.09250022  0.46932338  0.42814186    -0.27800
C20         C  0.06609244  0.48247781  0.41769346    -0.03000
C21         C  0.04620221  0.48186446  0.45592749     0.05600
C22         C  0.06255284  0.46736287  0.48934893     0.03700
H23         H  0.06179290  0.49193544  0.38446295     0.08800
H24         H  0.05445655  0.46198935  0.52376138     0.07600
N25         N  0.30086966  0.46631816  0.05160263    -0.26800
N26         N  0.28343566  0.45199928  0.02946523    -0.34600
C27         C  0.26106264  0.44616054  0.05909878     0.01600
C28         C  0.26450704  0.45748362  0.10191719     0.07600
C29         C  0.28981526  0.47025697  0.09582507    -0.05500
H30         H  0.24372631  0.43442462  0.05017587     0.08300
H31         H  0.30010097  0.48090752  0.12216187     0.09500
Cu32       Cu  0.29145267  0.44074607  0.96046315     0.44200
Cu33       Cu  0.34021818  0.47798942  0.02135620     0.42000
Cu34       Cu  0.35695982  0.45951754  0.89757406     0.43900
N35         N  0.30313758  0.43013326  0.89213157    -0.34200
N36         N  0.32708780  0.43670752  0.86818780    -0.28400
C37         C  0.32969955  0.42440733  0.82713483    -0.04500
C38         C  0.30622623  0.40939707  0.82550967     0.07700
C39         C  0.28996024  0.41366163  0.86736183     0.01500
H40         H  0.34860385  0.42498844  0.80223954     0.09200
H41         H  0.27096580  0.40438142  0.88031352     0.08200
N42         N  0.38507404  0.47912531  0.93926743    -0.35600
N43         N  0.37936768  0.48529184  0.98396695    -0.27800
C44         C  0.40317842  0.49628508  0.00085581    -0.03000
C45         C  0.42517465  0.49703821  0.96531589     0.05600
C46         C  0.41255536  0.48626520  0.92658784     0.03700
H47         H  0.40464288  0.50276778  0.03683417     0.08800
H48         H  0.42244844  0.48377169  0.89147350     0.07600
N49         N  0.26840204  0.32223808  0.68190345    -0.03000
C50         C  0.27242884  0.29843477  0.67477954    -0.00400
C51         C  0.29991587  0.28893141  0.69445415    -0.23300
C52         C  0.31335805  0.30732216  0.71474296    -0.23500
C53         C  0.29360200  0.32754326  0.70705487    -0.00500
H54         H  0.30778443  0.27034230  0.69789416     0.13300
H55         H  0.33389024  0.30578165  0.73672143     0.13400
N56         N  0.31292167  0.09134083  0.32765484    -0.26800
N57         N  0.29599690  0.11108354  0.33865014    -0.34600
C58         C  0.27465929  0.11614260  0.30466720     0.01600
C59         C  0.27829998  0.09875621  0.27033680     0.07600
C60         C  0.30269838  0.08321197  0.28622468    -0.05500
H61         H  0.25671408  0.13065328  0.30634743     0.08300
H62         H  0.31186778  0.06695152  0.26948325     0.09500
Cu63       Cu  0.29926032  0.12803081  0.40280673     0.44200
Cu64       Cu  0.34753309  0.07613641  0.37203681     0.42000
Cu65       Cu  0.34966226  0.10111578  0.49289978     0.43900
N66         N  0.29648897  0.13742767  0.47349165    -0.34200
N67         N  0.31406119  0.12729276  0.50761083    -0.28400
C68         C  0.30327623  0.13556835  0.54999195    -0.04500
C69         C  0.27745760  0.15137255  0.54175780     0.07700
C70         C  0.27421638  0.15226028  0.49284627     0.01500
H71         H  0.31250977  0.12962992  0.58421185     0.09200
H72         H  0.25620116  0.16225510  0.47270124     0.08200
N73         N  0.38207256  0.07516154  0.46591293    -0.35600
N74         N  0.38091269  0.06592375  0.42286739    -0.27800
C75         C  0.40526229  0.04974248  0.41716954    -0.03000
C76         C  0.42264175  0.04867281  0.45851484     0.05600
C77         C  0.40737562  0.06518044  0.48843858     0.03700
H78         H  0.41037383  0.03997142  0.38471869     0.08800
H79         H  0.41417469  0.06961224  0.52408715     0.07600
N80         N  0.16145070  0.07724942  0.06111412    -0.26800
N81         N  0.17750586  0.09215258  0.03752147    -0.34600
C82         C  0.20023761  0.09854605  0.06561282     0.01600
C83         C  0.19868326  0.08692986  0.10884779     0.07600
C84         C  0.17369647  0.07363376  0.10480842    -0.05500
H85         H  0.21684285  0.11065620  0.05517469     0.08300
H86         H  0.16454198  0.06262645  0.13196092     0.09500
Cu87       Cu  0.16851760  0.10278712  0.96787967     0.44200
Cu88       Cu  0.12288836  0.06350648  0.03326144     0.42000
Cu89       Cu  0.10437196  0.07963891  0.90973327     0.43900
N90         N  0.15803180  0.10881364  0.89668240    -0.34200
N91         N  0.13491915  0.09996583  0.87472516    -0.28400
C92         C  0.13417032  0.10747451  0.82914355    -0.04500
C93         C  0.15807709  0.12176594  0.82185047     0.07700
C94         C  0.17242708  0.12228027  0.86593851     0.01500
H95         H  0.11686290  0.10336435  0.80365804     0.09200
H96         H  0.19094037  0.13267151  0.87602048     0.08200
N97         N  0.07714896  0.06030944  0.95341958    -0.35600
N98         N  0.08394068  0.05437185  0.99803379    -0.27800
C99         C  0.06142993  0.04224153  0.01603910    -0.03000
C100        C  0.03948466  0.04020199  0.98098786     0.05600
C101        C  0.05013144  0.05208572  0.94192960     0.03700
H102        H  0.06112431  0.03537339  0.05199933     0.08800
H103        H  0.03879528  0.05504116  0.90787957     0.07600
N104        N  0.19325375  0.20502393  0.66625504    -0.03000
C105        C  0.18500379  0.22837581  0.65713333    -0.00400
C106        C  0.15441465  0.23395397  0.66991462    -0.23300
C107        C  0.14384423  0.21388531  0.68855018    -0.23500
C108        C  0.16801778  0.19635255  0.68588846    -0.00500
H109        H  0.14220861  0.25146321  0.67084718     0.13300
H110        H  0.12173917  0.21281478  0.70570355     0.13400
N111        N  0.80142161  0.56271024  0.57207503    -0.26800
N112        N  0.78124413  0.58075452  0.56115997    -0.34600
C113        C  0.76084232  0.58417606  0.59702733     0.01600
C114        C  0.76863608  0.56749188  0.63243133     0.07600
C115        C  0.79438764  0.55405062  0.61491254    -0.05500
H116        H  0.74189475  0.59794357  0.59745225     0.08300
H117        H  0.80696715  0.53882950  0.63148854     0.09500
Cu118      Cu  0.78302854  0.59943141  0.49756180     0.44200
Cu119      Cu  0.83838723  0.55161663  0.52907156     0.42000
Cu120      Cu  0.85008407  0.58450993  0.42019742     0.43900
N121        N  0.78970699  0.61561586  0.43231607    -0.34200
N122        N  0.81408953  0.61085890  0.40468492    -0.28400
C123        C  0.81072042  0.62479727  0.36565833    -0.04500
C124        C  0.78279323  0.63901908  0.36848557     0.07700
C125        C  0.77016663  0.63230356  0.41135532     0.01500
H126        H  0.82740081  0.62437856  0.33704142     0.09200
H127        H  0.74783481  0.63825979  0.42596882     0.08200
N128        N  0.88147308  0.55695147  0.44614640    -0.35600
N129        N  0.87671075  0.54533481  0.48601850    -0.27800
C130        C  0.90130098  0.52986740  0.49526749    -0.03000
C131        C  0.92275222  0.53143459  0.45940923     0.05600
C132        C  0.90940599  0.54882699  0.42872957     0.03700
H133        H  0.90359698  0.51854694  0.52640867     0.08800
H134        H  0.91975521  0.55573316  0.39718250     0.07600
N135        N  0.66664594  0.55438310  0.86578763    -0.26800
N136        N  0.69179599  0.56003419  0.88754212    -0.34600
C137        C  0.71397300  0.56233349  0.85495309     0.01600
C138        C  0.70222717  0.55802900  0.81027580     0.07600
C139        C  0.67217421  0.55273527  0.81876001    -0.05500
H140        H  0.73657199  0.56776985  0.86301192     0.08300
H141        H  0.65535265  0.54823982  0.79286495     0.09500
Cu142      Cu  0.69310966  0.56716083  0.95972085     0.44200
Cu143      Cu  0.62548670  0.55141667  0.90147116     0.42000
Cu144      Cu  0.61996735  0.57152685  0.02454695     0.43900
N145        N  0.68683283  0.58219599  0.02643994    -0.34200
N146        N  0.66005747  0.58514440  0.04895733    -0.28400
C147        C  0.66283067  0.59990217  0.08576748    -0.04500
C148        C  0.69267976  0.60675821  0.08623261     0.07700
C149        C  0.70729770  0.59464196  0.04859811     0.01500
H150        H  0.64380836  0.60670590  0.10812700     0.09200
H151        H  0.73059102  0.59586582  0.03601267     0.08200
N152        N  0.58463189  0.55627996  0.98904661    -0.35600
N153        N  0.58696477  0.54941974  0.94420939    -0.27800
C154        C  0.56131986  0.53953956  0.93189969    -0.03000
C155        C  0.54162194  0.53991618  0.97070486     0.05600
C156        C  0.55727400  0.55072698  0.00645651     0.03700
H157        H  0.55764643  0.53208223  0.89726067     0.08800
H158        H  0.55011354  0.55337294  0.04304791     0.07600
N159        N  0.72798291  0.70109525  0.22054236    -0.03000
C160        C  0.72226347  0.72524324  0.21893892    -0.00400
C161        C  0.70610422  0.73190795  0.17768860    -0.23300
C162        C  0.70137818  0.71177158  0.15364870    -0.23500
C163        C  0.71471740  0.69314520  0.18041527    -0.00500
H164        H  0.69900477  0.74972251  0.16557378     0.13300
H165        H  0.68971738  0.71077835  0.11979193     0.13400
N166        N  0.65950345  0.96303000  0.61650136    -0.26800
N167        N  0.68074096  0.94599179  0.60407198    -0.34600
C168        C  0.70198507  0.94287352  0.63886686     0.01600
C169        C  0.69377663  0.95873380  0.67496995     0.07600
C170        C  0.66685412  0.97139505  0.65937534    -0.05500
H171        H  0.72193625  0.92998454  0.63794118     0.08300
H172        H  0.65315091  0.98517732  0.67839026     0.09500
Cu173      Cu  0.67958282  0.92757209  0.54050674     0.44200
Cu174      Cu  0.62073579  0.97281354  0.57527379     0.42000
Cu175      Cu  0.61376778  0.94172433  0.46269403     0.43900
N176        N  0.67425524  0.91160448  0.47501796    -0.34200
N177        N  0.65041094  0.91671655  0.44638757    -0.28400
C178        C  0.65450121  0.90359239  0.40668656    -0.04500
C179        C  0.68237282  0.88957561  0.41035415     0.07700
C180        C  0.69404908  0.89512790  0.45437011     0.01500
H181        H  0.63820454  0.90417245  0.37754106     0.09200
H182        H  0.71580342  0.88810292  0.46984113     0.08200
N183        N  0.58088851  0.96768891  0.48818898    -0.35600
N184        N  0.58357854  0.97882024  0.52897746    -0.27800
C185        C  0.55883196  0.99457417  0.53485136    -0.03000
C186        C  0.53966252  0.99363663  0.49566502     0.05600
C187        C  0.55428514  0.97616982  0.46706949     0.03700
H188        H  0.55504051  0.00571197  0.56578519     0.08800
H189        H  0.54641689  0.97032874  0.43295515     0.07600
N190        N  0.79672161  0.97478469  0.90329079    -0.26800
N191        N  0.77722691  0.96178345  0.92499275    -0.34600
C192        C  0.75468837  0.95739582  0.89447521     0.01600
C193        C  0.75987040  0.96849976  0.85166233     0.07600
C194        C  0.78678258  0.97933883  0.85846014    -0.05500
H195        H  0.73604486  0.94668961  0.90269540     0.08300
H196        H  0.79891846  0.98896239  0.83219503     0.09500
Cu197      Cu  0.78228742  0.95035051  0.99498121     0.44200
Cu198      Cu  0.83711413  0.98376054  0.93534555     0.42000
Cu199      Cu  0.85130312  0.96274325  0.05776433     0.43900
N200        N  0.79130217  0.94051889  0.06512647    -0.34200
N201        N  0.81676006  0.94459239  0.08803496    -0.28400
C202        C  0.81669137  0.93408043  0.13109211    -0.04500
C203        C  0.78966785  0.92299245  0.13590116     0.07700
C204        C  0.77426019  0.92754596  0.09308357     0.01500
H205        H  0.83594950  0.93327490  0.15557908     0.09200
H206        H  0.75281007  0.92101936  0.08200308     0.08200
N207        N  0.88161790  0.98151149  0.01878031    -0.35600
N208        N  0.87651083  0.98893791  0.97451819    -0.27800
C209        C  0.90082977  0.99994682  0.95950322    -0.03000
C210        C  0.92219800  0.99970268  0.99609472     0.05600
C211        C  0.90925956  0.98774134  0.03308981     0.03700
H212        H  0.90278038  0.00763279  0.92445970     0.08800
H213        H  0.91943734  0.98332381  0.06746985     0.07600
N214        N  0.75910413  0.83225572  0.28136094    -0.03000
C215        C  0.77089825  0.80902804  0.28030137    -0.00400
C216        C  0.80106006  0.80770840  0.26334387    -0.23300
C217        C  0.80764127  0.83013757  0.25255902    -0.23500
C218        C  0.78153658  0.84478591  0.26273661    -0.00500
H219        H  0.81586319  0.79196792  0.25450444     0.13300
H220        H  0.82785251  0.83488003  0.23356506     0.13400
C221        C  0.78214425  0.90566829  0.17328651     0.00400
C222        C  0.76570107  0.88660014  0.15981494    -0.11500
C223        C  0.76263190  0.86761745  0.19074686     0.02600
C224        C  0.77595538  0.86742784  0.23647986     0.00300
C225        C  0.79023608  0.88718908  0.25162860    -0.11400
C226        C  0.79301489  0.90643533  0.22075405     0.02500
H227        H  0.75691344  0.88558595  0.12388345     0.15500
H228        H  0.80046987  0.88709507  0.28684179     0.15500
C229        C  0.80720009  0.92656275  0.23876151     0.37100
C230        C  0.74798843  0.84753537  0.17330884     0.37000
N231        N  0.81847896  0.94269966  0.25345091    -0.43200
N232        N  0.73633385  0.83140384  0.15945592    -0.43200
C233        C  0.74231899  0.96662345  0.80687376     0.00400
C234        C  0.73541829  0.94416791  0.79206274    -0.11500
C235        C  0.71962368  0.94125473  0.74940730     0.02600
C236        C  0.70991129  0.96115368  0.72092680     0.00300
C237        C  0.71586628  0.98374228  0.73653186    -0.11400
C238        C  0.73221729  0.98659703  0.77887835     0.02500
H239        H  0.74280508  0.92874768  0.81363153     0.15500
H240        H  0.70817551  0.99916045  0.71516838     0.15500
C241        C  0.73742936  0.01020617  0.79362735     0.37100
C242        C  0.71278075  0.91772385  0.73657331     0.37000
N243        N  0.74152073  0.02914117  0.80550830    -0.43200
N244        N  0.70727724  0.89885832  0.72635148    -0.43200
C245        C  0.69781355  0.87286813  0.37506404     0.00400
C246        C  0.71572236  0.85263823  0.39194903    -0.11500
C247        C  0.73417303  0.83794370  0.36119188     0.02600
C248        C  0.73506746  0.84329430  0.31202535     0.00300
C249        C  0.71560751  0.86269593  0.29484930    -0.11400
C250        C  0.69720150  0.87743055  0.32554447     0.02500
H251        H  0.71611743  0.84867330  0.42975408     0.15500
H252        H  0.71548725  0.86685156  0.25725267     0.15500
C253        C  0.68001042  0.89807058  0.30529129     0.37100
C254        C  0.75352457  0.81851229  0.38181447     0.37000
N255        N  0.66637251  0.91459207  0.28868831    -0.43200
N256        N  0.76891857  0.80290610  0.39859391    -0.43200
C257        C  0.73207132  0.74369264  0.25243284     0.00400
C258        C  0.71189389  0.76453146  0.25666814    -0.11500
C259        C  0.72265786  0.78628991  0.26864171     0.02600
C260        C  0.75376361  0.78712222  0.28291151     0.00300
C261        C  0.77182451  0.76526837  0.28863972    -0.11400
C262        C  0.76237236  0.74415976  0.27026016     0.02500
H263        H  0.68820655  0.76447000  0.24453708     0.15500
H264        H  0.79528850  0.76509570  0.30176284     0.15500
C265        C  0.78611334  0.72498334  0.26392318     0.37100
C266        C  0.70178969  0.80706902  0.25965177     0.37000
N267        N  0.80631674  0.71041212  0.25918738    -0.48000
N268        N  0.68393035  0.82296344  0.25124017    -0.43200
C269        C  0.70358720  0.62672440  0.11388620     0.00400
C270        C  0.69269136  0.63072708  0.16065633    -0.11500
C271        C  0.69825387  0.65138344  0.18537291     0.02600
C272        C  0.71503439  0.66845434  0.16319584     0.00300
C273        C  0.72737379  0.66382216  0.11778046    -0.11400
C274        C  0.72197405  0.64336293  0.09305705     0.02500
H275        H  0.67869514  0.61812780  0.17724932     0.15500
H276        H  0.73995060  0.67708455  0.10030851     0.15500
C277        C  0.73328348  0.64147365  0.04478940     0.37100
C278        C  0.68453331  0.65543977  0.23168826     0.37000
N279        N  0.74252645  0.64030796  0.00615730    -0.43200
N280        N  0.67348927  0.65857152  0.26885946    -0.43200
C281        C  0.75210938  0.56448690  0.67818858     0.00400
C282        C  0.72003413  0.57044904  0.67974178    -0.11500
C283        C  0.70320925  0.56834242  0.72184865     0.02600
C284        C  0.71847100  0.55989681  0.76393033     0.00300
C285        C  0.75056011  0.55399456  0.76241989    -0.11400
C286        C  0.76742709  0.55627375  0.72040766     0.02500
H287        H  0.70790531  0.57686812  0.64781188     0.15500
H288        H  0.76267857  0.54766109  0.79442396     0.15500
C289        C  0.80054584  0.55114861  0.72278136     0.37100
C290        C  0.67066856  0.57619178  0.72091448     0.37000
N291        N  0.82708035  0.54701580  0.72516482    -0.43200
N292        N  0.64460948  0.58258830  0.71971182    -0.43200
C293        C  0.76881184  0.65611095  0.33158947     0.00400
C294        C  0.77952205  0.65390136  0.28438704    -0.11500
C295        C  0.76710406  0.66890713  0.24803097     0.02600
C296        C  0.74272911  0.68641273  0.25785889     0.00300
C297        C  0.73243461  0.68921401  0.30488778    -0.11400
C298        C  0.74529963  0.67455894  0.34168069     0.02500
H299        H  0.79780169  0.64039816  0.27542100     0.15500
H300        H  0.71410401  0.70290124  0.31276780     0.15500
C301        C  0.73434875  0.67975086  0.38925962     0.37100
C302        C  0.78162448  0.66722372  0.20184186     0.37000
N303        N  0.72521998  0.68429645  0.42711973    -0.43200
N304        N  0.79378093  0.66591851  0.16518171    -0.43200
C305        C  0.01026406  0.02872357  0.98522892     0.00400
C306        C  0.99369264  0.03053923  0.02821093    -0.11500
C307        C  0.96522358  0.02099533  0.03301383     0.02600
C308        C  0.95282782  0.00926970  0.99420844     0.00300
C309        C  0.96980674  0.00695498  0.95172101    -0.11400
C310        C  0.99833213  0.01629039  0.94707393     0.02500
H311        H  0.00256924  0.04004356  0.05779497     0.15500
H312        H  0.96093087  0.99749695  0.92206727     0.15500
C313        C  0.01542002  0.01186083  0.90347777     0.37100
C314        C  0.94862458  0.02463986  0.07726449     0.37000
N315        N  0.02916326  0.00820016  0.86860496    -0.43200
N316        N  0.93541797  0.02763168  0.11280991    -0.43200
C317        C  0.16796145  0.17303970  0.71063560     0.00400
C318        C  0.19389340  0.16439931  0.73741640    -0.11500
C319        C  0.19211722  0.14601747  0.77061491     0.02600
C320        C  0.16348387  0.13675624  0.77930184     0.00300
C321        C  0.13871677  0.14349049  0.74842556    -0.11400
C322        C  0.14099409  0.16106819  0.71371710     0.02500
H323        H  0.21521164  0.17272690  0.73423938     0.15500
H324        H  0.11698223  0.13581632  0.75246023     0.15500
C325        C  0.11533647  0.16649562  0.68165582     0.37100
C326        C  0.22017031  0.13679965  0.79437374     0.37000
N327        N  0.09492081  0.17071561  0.65561919    -0.43200
N328        N  0.24278454  0.12926669  0.81290845    -0.43200
C329        C  0.45227668  0.03421016  0.46785179     0.00400
C330        C  0.47619248  0.04483959  0.49031911    -0.11500
C331        C  0.50483602  0.03214251  0.49920591     0.02600
C332        C  0.50988080  0.00804188  0.48624977     0.00300
C333        C  0.48590238  0.99741558  0.46371805    -0.11400
C334        C  0.45729023  0.01019420  0.45460030     0.02500
H335        H  0.47273539  0.06337157  0.49999594     0.15500
H336        H  0.48929650  0.97889127  0.45400151     0.15500
C337        C  0.43304060  0.99790928  0.43376465     0.37100
C338        C  0.52900713  0.04474392  0.51936035     0.37000
N339        N  0.41355713  0.98804561  0.41724416    -0.43200
N340        N  0.54834429  0.05493375  0.53539105    -0.43200
C341        C  0.25813038  0.09597617  0.22866308     0.00400
C342        C  0.24969707  0.07336986  0.21762027    -0.11500
C343        C  0.23011643  0.06995817  0.17918497     0.02600
C344        C  0.21873779  0.08945378  0.15073702     0.00300
C345        C  0.22744103  0.11199563  0.16151286    -0.11400
C346        C  0.24686517  0.11542948  0.20001703     0.02500
H347        H  0.25827505  0.05828997  0.23931772     0.15500
H348        H  0.21898863  0.12707474  0.13970231     0.15500
C349        C  0.25592716  0.13892218  0.20780199     0.37100
C350        C  0.22334512  0.04614594  0.16854516     0.37000
N351        N  0.26317520  0.15777994  0.21374763    -0.43200
N352        N  0.21809059  0.02700656  0.16009651    -0.43200
C353        C  0.25581150  0.16326666  0.57682404     0.00400
C354        C  0.26731366  0.17510089  0.61592719    -0.11500
C355        C  0.24714339  0.18867193  0.64652464     0.02600
C356        C  0.21508621  0.19041926  0.63804002     0.00300
C357        C  0.20366251  0.17762074  0.60052395    -0.11400
C358        C  0.22350320  0.16403974  0.57028562     0.02500
H359        H  0.29203639  0.17434929  0.62167838     0.15500
H360        H  0.17893609  0.17855591  0.59458811     0.15500
C361        C  0.20985602  0.15062401  0.53363955     0.37100
C362        C  0.25963929  0.20072159  0.68604389     0.37000
N363        N  0.19876728  0.13988357  0.50443342    -0.43200
N364        N  0.26968940  0.21033690  0.71784995    -0.43200
C365        C  0.24720147  0.28332585  0.66494871     0.00400
C366        C  0.24914973  0.26796854  0.62573728    -0.11500
C367        C  0.22873270  0.25023935  0.62105769     0.02600
C368        C  0.20687100  0.24710495  0.65721539     0.00300
C369        C  0.20481127  0.26286955  0.69574170    -0.11400
C370        C  0.22430876  0.28091051  0.69957725     0.02500
H371        H  0.26691254  0.26963295  0.59915872     0.15500
H372        H  0.18816582  0.26077876  0.72386621     0.15500
C373        C  0.22153803  0.29573567  0.74121947     0.37100
C374        C  0.23033192  0.23601208  0.57864050     0.37000
N375        N  0.21904887  0.30746599  0.77477128    -0.43200
N376        N  0.23175923  0.22478056  0.54434197    -0.43200
C377        C  0.51200510  0.52864172  0.97293517     0.00400
C378        C  0.50918921  0.50867952  0.94453018    -0.11500
C379        C  0.48166812  0.49782849  0.94238546     0.02600
C380        C  0.45556964  0.50713546  0.96852688     0.00300
C381        C  0.45863320  0.52656403  0.99849240    -0.11400
C382        C  0.48644875  0.53729211  0.00105756     0.02500
H383        H  0.52885608  0.50116733  0.92411033     0.15500
H384        H  0.43896905  0.53382767  0.01921597     0.15500
C385        C  0.48747764  0.55759782  0.03145541     0.37100
C386        C  0.48165859  0.47653691  0.91458676     0.37000
N387        N  0.48804553  0.57379620  0.05614009    -0.43200
N388        N  0.48194893  0.45944926  0.89228447    -0.43200
C389        C  0.30306193  0.38910987  0.79324686     0.00400
C390        C  0.29724127  0.36746699  0.81406844    -0.11500
C391        C  0.29372577  0.34760399  0.78637229     0.02600
C392        C  0.29561712  0.34905274  0.73623343     0.00300
C393        C  0.30123994  0.37068137  0.71497982    -0.11400
C394        C  0.30512920  0.39066040  0.74310765     0.02500
H395        H  0.29585355  0.36590040  0.85247848     0.15500
H396        H  0.30286681  0.37188511  0.67655904     0.15500
C397        C  0.31035999  0.41260542  0.71971622     0.37100
C398        C  0.28794373  0.32593307  0.81062386     0.37000
N399        N  0.31453854  0.43019431  0.70084644    -0.43200
N400        N  0.28351038  0.30862178  0.83034746    -0.43200
C401        C  0.01422944  0.49396434  0.45823488     0.00400
C402        C  0.99684487  0.49680122  0.41593132    -0.11500
C403        C  0.96717427  0.50889274  0.41533907     0.02600
C404        C  0.95417799  0.51857916  0.45771547     0.00300
C405        C  0.97131467  0.51553791  0.50010005    -0.11400
C406        C  0.00106228  0.50355998  0.50070440     0.02500
H407        H  0.00629655  0.48927410  0.38308337     0.15500
H408        H  0.96167717  0.52303726  0.53287661     0.15500
C409        C  0.01796339  0.50254968  0.54496531     0.37100
C410        C  0.95005184  0.51007791  0.37124400     0.37000
N411        N  0.03140791  0.50187116  0.58056127    -0.43200
N412        N  0.93631270  0.51088850  0.33591186    -0.43200
C413        C  0.21508136  0.45304329  0.23357386     0.00400
C414        C  0.22558693  0.43231247  0.20936392    -0.11500
C415        C  0.24075244  0.43334626  0.16556843     0.02600
C416        C  0.24636658  0.45549947  0.14596924     0.00300
C417        C  0.23565727  0.47624384  0.17002002    -0.11400
C418        C  0.21970068  0.47521789  0.21316249     0.02500
H419        H  0.22195487  0.41522849  0.22481155     0.15500
H420        H  0.23986090  0.49331781  0.15506164     0.15500
C421        C  0.20958516  0.49711782  0.23670990     0.37100
C422        C  0.25155780  0.41139993  0.14274974     0.37000
N423        N  0.20145770  0.51469867  0.25546944    -0.43200
N424        N  0.26014186  0.39377284  0.12452662    -0.43200
C425        C  0.21690112  0.37122373  0.58801683     0.00400
C426        C  0.21450219  0.37427134  0.63763584    -0.11500
C427        C  0.23024442  0.35804205  0.66949992     0.02600
C428        C  0.24930025  0.33849768  0.65179449     0.00300
C429        C  0.25056497  0.33502963  0.60240764    -0.11400
C430        C  0.23442944  0.35077613  0.57075976     0.02500
H431        H  0.20054294  0.38950631  0.65160732     0.15500
H432        H  0.26461700  0.31985755  0.58834773     0.15500
C433        C  0.23534018  0.34471269  0.52091986     0.37100
C434        C  0.22550277  0.36146687  0.71983165     0.37000
N435        N  0.23607490  0.33963890  0.48108001    -0.43200
N436        N  0.22134362  0.36447308  0.76011124    -0.43200
loop_ 
_geom_bond_atom_site_label_1 
_geom_bond_atom_site_label_2 
_geom_bond_distance 
_geom_bond_site_symmetry_2 
_ccdc_geom_bond_type 
N1            N2   1.320       .  A
N1            C5   1.344       .  A
N1           Cu9   2.057       .  S
N2            C3   1.345       .  A
N2           Cu8   2.075       .  S
C3            C4   1.385       .  A
C3            H6   1.082       .  S
C4            C5   1.382       .  A
C4          C413   1.476       .  S
C5            H7   1.081       .  S
Cu8          N11   2.077       .  S
Cu9          N19   2.058       .  S
Cu10         N12   2.110       .  S
Cu10         N18   2.110       .  S
N11          N12   1.324       .  A
N11          C15   1.343       .  A
N12          C13   1.353       .  A
C13          C14   1.393       .  A
C13          H16   1.082       .  S
C14          C15   1.385       .  A
C14         C425   1.497       .  S
C15          H17   1.082       .  S
N18          N19   1.323       .  A
N18          C22   1.351       .  A
N19          C20   1.341       .  A
C20          C21   1.381       .  A
C20          H23   1.082       .  S
C21          C22   1.395       .  A
C21         C401   1.493       .  S
C22          H24   1.081       .  S
N25          N26   1.321       .  A
N25          C29   1.345       .  A
N25         Cu33   2.072       .  S
N26          C27   1.344       .  A
N26         Cu32   2.065   1_554  S
C27          C28   1.382       .  A
C27          H30   1.082       .  S
C28          C29   1.384       .  A
C28         C416   1.477       .  S
C29          H31   1.082       .  S
Cu32         N35   2.065       .  S
Cu33         N43   2.074   1_554  S
Cu34         N36   2.092       .  S
Cu34         N42   2.093       .  S
N35          N36   1.321       .  A
N35          C39   1.340       .  A
N36          C37   1.351       .  A
C37          C38   1.391       .  A
C37          H40   1.082       .  S
C38          C39   1.383       .  A
C38         C389   1.487       .  S
C39          H41   1.082       .  S
N42          N43   1.323       .  A
N42          C46   1.345       .  A
N43          C44   1.346   1_556  A
C44          C45   1.386   1_554  A
C44          H47   1.082       .  S
C45          C46   1.390       .  A
C45         C380   1.492       .  S
C46          H48   1.081       .  S
N49          C53   1.362       .  A
N49          C50   1.362       .  A
N49         C428   1.451       .  S
C50          C51   1.379       .  A
C50         C365   1.482       .  S
C51          C52   1.371       .  A
C51          H54   1.082       .  S
C52          C53   1.384       .  A
C52          H55   1.082       .  S
C53         C392   1.485       .  S
N56          N57   1.320       .  A
N56          C60   1.346       .  A
N56         Cu64   2.076       .  S
N57          C58   1.343       .  A
N57         Cu63   2.060       .  S
C58          C59   1.383       .  A
C58          H61   1.082       .  S
C59          C60   1.387       .  A
C59         C341   1.481       .  S
C60          H62   1.081       .  S
Cu63         N66   2.060       .  S
Cu64         N74   2.078       .  S
Cu65         N67   2.086       .  S
Cu65         N73   2.087       .  S
N66          N67   1.321       .  A
N66          C70   1.340       .  A
N67          C68   1.351       .  A
C68          C69   1.388       .  A
C68          H71   1.082       .  S
C69          C70   1.382       .  A
C69         C353   1.484       .  S
C70          H72   1.081       .  S
N73          N74   1.324       .  A
N73          C77   1.346       .  A
N74          C75   1.345       .  A
C75          C76   1.384       .  A
C75          H78   1.082       .  S
C76          C77   1.385       .  A
C76         C329   1.484       .  S
C77          H79   1.082       .  S
N80          N81   1.322       .  A
N80          C84   1.345       .  A
N80         Cu88   2.071       .  S
N81          C82   1.343       .  A
N81         Cu87   2.071   1_554  S
C82          C83   1.384       .  A
C82          H85   1.082       .  S
C83          C84   1.385       .  A
C83         C344   1.481       .  S
C84          H86   1.083       .  S
Cu87         N90   2.071       .  S
Cu88         N98   2.071   1_554  S
Cu89         N91   2.083       .  S
Cu89         N97   2.083       .  S
N90          N91   1.320       .  A
N90          C94   1.343       .  A
N91          C92   1.347       .  A
C92          C93   1.392       .  A
C92          H95   1.081       .  S
C93          C94   1.389       .  A
C93         C320   1.495       .  S
C94          H96   1.081       .  S
N97          N98   1.322       .  A
N97         C101   1.344       .  A
N98          C99   1.346   1_556  A
C99         C100   1.385   1_554  A
C99         H102   1.081       .  S
C100        C101   1.387       .  A
C100        C305   1.486       .  S
C101        H103   1.081       .  S
N104        C108   1.360       .  A
N104        C105   1.363       .  A
N104        C356   1.441       .  S
C105        C106   1.386       .  A
C105        C368   1.492       .  S
C106        C107   1.369       .  A
C106        H109   1.083       .  S
C107        C108   1.381       .  A
C107        H110   1.082       .  S
C108        C317   1.492       .  S
N111        N112   1.320       .  A
N111        C115   1.344       .  A
N111       Cu119   2.064       .  S
N112        C113   1.345       .  A
N112       Cu118   2.078       .  S
C113        C114   1.389       .  A
C113        H116   1.081       .  S
C114        C115   1.387       .  A
C114        C281   1.489       .  S
C115        H117   1.081       .  S
Cu118       N121   2.078       .  S
Cu119       N129   2.064       .  S
Cu120       N122   2.105       .  S
Cu120       N128   2.104       .  S
N121        N122   1.322       .  A
N121        C125   1.345       .  A
N122        C123   1.348       .  A
C123        C124   1.396       .  A
C123        H126   1.082       .  S
C124        C125   1.390       .  A
C124        C293   1.505       .  S
C125        H127   1.080       .  S
N128        N129   1.323       .  A
N128        C132   1.351       .  A
N129        C130   1.343       .  A
C130        C131   1.381       .  A
C130        H133   1.082       .  S
C131        C132   1.392       .  A
C131        C404   1.488       .  S
C132        H134   1.082       .  S
N135        N136   1.320       .  A
N135        C139   1.345       .  A
N135       Cu143   2.071       .  S
N136        C137   1.344       .  A
N136       Cu142   2.073       .  S
C137        C138   1.387       .  A
C137        H140   1.082       .  S
C138        C139   1.388       .  A
C138        C284   1.489       .  S
C139        H141   1.080       .  S
Cu142       N145   2.072   1_556  S
Cu143       N153   2.072       .  S
Cu144       N146   2.090       .  S
Cu144       N152   2.090   1_554  S
N145        N146   1.322       .  A
N145        C149   1.343       .  A
N146        C147   1.348       .  A
C147        C148   1.390       .  A
C147        H150   1.082       .  S
C148        C149   1.386       .  A
C148        C269   1.492       .  S
C149        H151   1.081       .  S
N152        N153   1.322       .  A
N152        C156   1.350   1_556  A
N153        C154   1.341       .  A
C154        C155   1.385       .  A
C154        H157   1.082       .  S
C155        C156   1.391   1_556  A
C155        C377   1.492       .  S
C156        H158   1.082       .  S
N159        C163   1.365       .  A
N159        C160   1.371       .  A
N159        C296   1.447       .  S
C160        C161   1.388       .  A
C160        C257   1.504       .  S
C161        C162   1.364       .  A
C161        H164   1.082       .  S
C162        C163   1.377       .  A
C162        H165   1.082       .  S
C163        C272   1.485       .  S
N166        N167   1.322       .  A
N166        C170   1.347       .  A
N166       Cu174   2.076       .  S
N167        C168   1.345       .  A
N167       Cu173   2.078       .  S
C168        C169   1.385       .  A
C168        H171   1.082       .  S
C169        C170   1.385       .  A
C169        C236   1.483       .  S
C170        H172   1.082       .  S
Cu173       N176   2.079       .  S
Cu174       N184   2.076       .  S
Cu175       N177   2.085       .  S
Cu175       N183   2.085       .  S
N176        N177   1.322       .  A
N176        C180   1.345       .  A
N177        C178   1.348       .  A
C178        C179   1.390       .  A
C178        H181   1.082       .  S
C179        C180   1.386       .  A
C179        C245   1.492       .  S
C180        H182   1.082       .  S
N183        N184   1.323       .  A
N183        C187   1.347       .  A
N184        C185   1.344       .  A
C185        C186   1.386       .  A
C185        H188   1.082   1_565  S
C186        C187   1.387       .  A
C186        C332   1.488   1_565  S
C187        H189   1.082       .  S
N190        N191   1.322       .  A
N190        C194   1.348       .  A
N190       Cu198   2.081       .  S
N191        C192   1.344       .  A
N191       Cu197   2.073       .  S
C192        C193   1.383       .  A
C192        H195   1.082       .  S
C193        C194   1.386       .  A
C193        C233   1.482       .  S
C194        H196   1.082       .  S
Cu197       N200   2.073   1_556  S
Cu198       N208   2.081       .  S
Cu199       N201   2.079       .  S
Cu199       N207   2.079       .  S
N200        N201   1.320       .  A
N200        C204   1.343       .  A
N201        C202   1.346       .  A
C202        C203   1.390       .  A
C202        H205   1.081       .  S
C203        C204   1.388       .  A
C203        C221   1.492       .  S
C204        H206   1.082       .  S
N207        N208   1.323   1_554  A
N207        C211   1.347       .  A
N208        C209   1.344       .  A
C209        C210   1.385       .  A
C209        H212   1.081   1_565  S
C210        C211   1.386   1_556  A
C210        C308   1.486   1_565  S
C211        H213   1.081       .  S
N214        C218   1.363       .  A
N214        C215   1.370       .  A
N214        C248   1.453       .  S
C215        C216   1.391       .  A
C215        C260   1.510       .  S
C216        C217   1.364       .  A
C216        H219   1.081       .  S
C217        C218   1.374       .  A
C217        H220   1.083       .  S
C218        C224   1.479       .  S
C221        C222   1.406       .  A
C221        C226   1.418       .  A
C222        C223   1.397       .  A
C222        H227   1.083       .  S
C223        C224   1.409       .  A
C223        C230   1.445       .  S
C224        C225   1.401       .  A
C225        C226   1.405       .  A
C225        H228   1.085       .  S
C226        C229   1.443       .  S
C229        N231   1.157       .  T
C230        N232   1.157       .  T
C233        C234   1.403       .  A
C233        C238   1.412       .  A
C234        C235   1.400       .  A
C234        H239   1.085       .  S
C235        C236   1.412       .  A
C235        C242   1.444       .  S
C236        C237   1.405       .  A
C237        C238   1.404       .  A
C237        H240   1.085       .  S
C238        C241   1.444   1_565  S
C241        N243   1.157       .  T
C242        N244   1.157       .  T
C245        C246   1.406       .  A
C245        C250   1.414       .  A
C246        C247   1.403       .  A
C246        H251   1.084       .  S
C247        C248   1.414       .  A
C247        C254   1.442       .  S
C248        C249   1.408       .  A
C249        C250   1.403       .  A
C249        H252   1.081       .  S
C250        C253   1.444       .  S
C253        N255   1.157       .  T
C254        N256   1.157       .  T
C257        C258   1.411       .  A
C257        C262   1.412       .  A
C258        C259   1.404       .  A
C258        H263   1.085       .  S
C259        C260   1.416       .  A
C259        C266   1.440       .  S
C260        C261   1.413       .  A
C261        C262   1.404       .  A
C261        H264   1.084       .  S
C262        C265   1.440       .  S
C265        N267   1.157       .  T
C266        N268   1.157       .  T
C269        C270   1.409       .  A
C269        C274   1.417       .  A
C270        C271   1.407       .  A
C270        H275   1.085       .  S
C271        C272   1.409       .  A
C271        C278   1.442       .  S
C272        C273   1.401       .  A
C273        C274   1.396       .  A
C273        H276   1.086       .  S
C274        C277   1.444       .  S
C277        N279   1.158       .  T
C278        N280   1.157       .  T
C281        C282   1.405       .  A
C281        C286   1.416       .  A
C282        C283   1.401       .  A
C282        H287   1.085       .  S
C283        C284   1.415       .  A
C283        C290   1.443       .  S
C284        C285   1.405       .  A
C285        C286   1.401       .  A
C285        H288   1.085       .  S
C286        C289   1.444       .  S
C289        N291   1.157       .  T
C290        N292   1.157       .  T
C293        C294   1.408       .  A
C293        C298   1.423       .  A
C294        C295   1.402       .  A
C294        H299   1.082       .  S
C295        C296   1.412       .  A
C295        C302   1.443       .  S
C296        C297   1.400       .  A
C297        C298   1.406       .  A
C297        H300   1.084       .  S
C298        C301   1.442       .  S
C301        N303   1.158       .  T
C302        N304   1.157       .  T
C305        C306   1.406   1_456  A
C305        C310   1.413   1_455  A
C306        C307   1.403       .  A
C306        H311   1.085   1_655  S
C307        C308   1.414   1_554  A
C307        C314   1.444       .  S
C308        C309   1.404       .  A
C309        C310   1.400       .  A
C309        H312   1.085   1_545  S
C310        C313   1.444   1_655  S
C313        N315   1.157       .  T
C314        N316   1.157       .  T
C317        C318   1.404       .  A
C317        C322   1.412       .  A
C318        C319   1.403       .  A
C318        H323   1.083       .  S
C319        C320   1.417       .  A
C319        C326   1.444       .  S
C320        C321   1.406       .  A
C321        C322   1.401       .  A
C321        H324   1.083       .  S
C322        C325   1.444       .  S
C325        N327   1.157       .  T
C326        N328   1.157       .  T
C329        C330   1.403       .  A
C329        C334   1.413       .  A
C330        C331   1.401       .  A
C330        H335   1.085       .  S
C331        C332   1.415       .  A
C331        C338   1.444       .  S
C332        C333   1.405   1_545  A
C333        C334   1.403   1_565  A
C333        H336   1.085       .  S
C334        C337   1.444   1_545  S
C337        N339   1.157       .  T
C338        N340   1.157       .  T
C341        C342   1.404       .  A
C341        C346   1.413       .  A
C342        C343   1.401       .  A
C342        H347   1.085       .  S
C343        C344   1.413       .  A
C343        C350   1.444       .  S
C344        C345   1.403       .  A
C345        C346   1.399       .  A
C345        H348   1.086       .  S
C346        C349   1.444       .  S
C349        N351   1.157       .  T
C350        N352   1.157       .  T
C353        C354   1.408       .  A
C353        C358   1.413       .  A
C354        C355   1.408       .  A
C354        H359   1.084       .  S
C355        C356   1.408       .  A
C355        C362   1.441       .  S
C356        C357   1.401       .  A
C357        C358   1.394       .  A
C357        H360   1.084       .  S
C358        C361   1.445       .  S
C361        N363   1.157       .  T
C362        N364   1.157       .  T
C365        C366   1.407       .  A
C365        C370   1.407       .  A
C366        C367   1.410       .  A
C366        H371   1.084       .  S
C367        C368   1.413       .  A
C367        C374   1.442       .  S
C368        C369   1.406       .  A
C369        C370   1.394       .  A
C369        H372   1.085       .  S
C370        C373   1.444       .  S
C373        N375   1.157       .  T
C374        N376   1.157       .  T
C377        C378   1.405       .  A
C377        C382   1.415   1_556  A
C378        C379   1.398       .  A
C378        H383   1.085       .  S
C379        C380   1.414       .  A
C379        C386   1.443       .  S
C380        C381   1.408       .  A
C381        C382   1.406   1_556  A
C381        H384   1.085   1_556  S
C382        C385   1.443       .  S
C385        N387   1.158       .  T
C386        N388   1.157       .  T
C389        C390   1.402       .  A
C389        C394   1.414       .  A
C390        C391   1.394       .  A
C390        H395   1.085       .  S
C391        C392   1.414       .  A
C391        C398   1.445       .  S
C392        C393   1.404       .  A
C393        C394   1.410       .  A
C393        H396   1.084       .  S
C394        C397   1.442       .  S
C397        N399   1.157       .  T
C398        N400   1.157       .  T
C401        C402   1.409   1_455  A
C401        C406   1.413       .  A
C402        C403   1.403       .  A
C402        H407   1.084   1_655  S
C403        C404   1.410       .  A
C403        C410   1.444       .  S
C404        C405   1.406       .  A
C405        C406   1.404   1_655  A
C405        H408   1.085       .  S
C406        C409   1.443       .  S
C409        N411   1.157       .  T
C410        N412   1.157       .  T
C413        C414   1.402       .  A
C413        C418   1.412       .  A
C414        C415   1.400       .  A
C414        H419   1.085       .  S
C415        C416   1.412       .  A
C415        C422   1.444       .  S
C416        C417   1.403       .  A
C417        C418   1.400       .  A
C417        H420   1.085       .  S
C418        C421   1.444       .  S
C421        N423   1.157       .  T
C422        N424   1.157       .  T
C425        C426   1.409       .  A
C425        C430   1.416       .  A
C426        C427   1.411       .  A
C426        H431   1.085       .  S
C427        C428   1.414       .  A
C427        C434   1.441       .  S
C428        C429   1.403       .  A
C429        C430   1.398       .  A
C429        H432   1.085       .  S
C430        C433   1.444       .  S
C433        N435   1.157       .  T
C434        N436   1.157       .  T
