geometry optimzed in LAMMPS
_audit_creation_date              2020-11-30 
_audit_creation_method            'lammps2cif' 
_symmetry_space_group_name_H-M    'P1' 
_symmetry_Int_Tables_number       1 
_symmetry_cell_setting            triclinic 
loop_ 
_symmetry_equiv_pos_as_xyz 
  x,y,z 
_cell_length_a                    38.53760999 
_cell_length_b                    38.59860040767928 
_cell_length_c                    38.557532822464545 
_cell_angle_alpha                 89.99257077076172 
_cell_angle_beta                  90.1523102046383 
_cell_angle_gamma                 89.94712235337401 
loop_ 
_atom_site_label 
_atom_site_type_symbol 
_atom_site_fract_x 
_atom_site_fract_y 
_atom_site_fract_z 
_atom_site_charge 
O1          O  0.18867009  0.78171771  0.51438108    -0.76000
C2          C  0.18401167  0.70519948  0.44008749     0.85100
O3          O  0.21110707  0.65539059  0.53077033    -0.77100
O4          O  0.29831738  0.70222253  0.44384769    -0.78600
O5          O  0.30096074  0.78823508  0.50594385    -0.78400
O6          O  0.23301727  0.79841377  0.54780494    -0.77000
Zn7        Zn  0.19929344  0.73211885  0.51028130     1.55700
O8          O  0.27592533  0.78739439  0.45334858    -0.78400
Cd9        Cd  0.26900472  0.75871626  0.53455482     1.59700
Cd10       Cd  0.25513998  0.67842959  0.51181131     1.59600
O11         O  0.30415290  0.73012965  0.56550336    -0.78400
O12         O  0.24628210  0.72681435  0.50286729    -1.88900
Cd13       Cd  0.25712373  0.73530206  0.45436876     1.59900
O14         O  0.29477704  0.67617333  0.54579377    -0.78300
O15         O  0.21293619  0.71525768  0.42689367    -0.77000
C16         C  0.18646847  0.66991072  0.54727481     0.85500
C17         C  0.20453424  0.80484073  0.53155203     0.85200
O18         O  0.17586003  0.71168453  0.47108706    -0.75900
C19         C  0.29574784  0.80149070  0.47634996     0.86000
O20         O  0.18293538  0.70265830  0.54886342    -0.76000
C21         C  0.31242737  0.69798568  0.56287459     0.86100
C22         C  0.29983380  0.66991367  0.45062696     0.86500
O23         O  0.27751761  0.65492610  0.46973048    -0.78500
O24         O  0.82166464  0.70773977  0.96320561    -0.76000
C25         C  0.79933082  0.80292757  0.02383221     0.85100
O26         O  0.79187086  0.65495094  0.02950966    -0.77100
O27         O  0.69973937  0.73110358  0.06409725    -0.78600
O28         O  0.72033269  0.78386829  0.94942550    -0.78400
O29         O  0.78071640  0.70980181  0.92220592    -0.77000
Zn30       Zn  0.80265527  0.73035830  0.00349884     1.55700
O31         O  0.70182464  0.78887710  0.00429068    -0.78400
Cd32       Cd  0.74018178  0.73237030  0.95253510     1.59700
Cd33       Cd  0.74714642  0.67764013  0.01168707     1.59600
O34         O  0.69844339  0.69964673  0.94727124    -0.78400
O35         O  0.75517236  0.72563031  0.00025255    -1.88900
Cd36       Cd  0.73440123  0.75853794  0.03181984     1.59900
O37         O  0.72230022  0.65296403  0.97179294    -0.78300
O38         O  0.77244937  0.79670629  0.04255132    -0.77000
C39         C  0.81780334  0.66991945  0.04348833     0.85500
C40         C  0.81042193  0.69960997  0.93351902     0.85200
O41         O  0.81356281  0.77983500  0.00527165    -0.75900
C42         C  0.70289029  0.79947799  0.97324426     0.86000
O43         O  0.82239765  0.70252153  0.04200932    -0.76000
C44         C  0.69814050  0.66748835  0.95450627     0.86100
C45         C  0.69183258  0.69878425  0.06346258     0.86500
O46         O  0.70950444  0.67618022  0.04756626    -0.78500
O47         O  0.19773717  0.54060935  0.17474711    -0.76000
C48         C  0.29161409  0.48087695  0.20535612     0.85100
O49         O  0.14211273  0.47920114  0.20823836    -0.77100
O50         O  0.21679995  0.44672617  0.30355743    -0.78600
O51         O  0.27219840  0.55944231  0.27509472    -0.78400
O52         O  0.19893447  0.58416813  0.21275463    -0.77000
Zn53       Zn  0.21872006  0.50143026  0.19808092     1.55700
O54         O  0.27405127  0.50740291  0.30085803    -0.78400
Cd55       Cd  0.22010542  0.55676018  0.25632825     1.59700
Cd56       Cd  0.16426601  0.49799257  0.25318883     1.59600
O57         O  0.18744901  0.56563651  0.29781969    -0.78400
O58         O  0.21259820  0.50823674  0.24509367    -1.88900
Cd59       Cd  0.24499352  0.47790647  0.26886578     1.59900
O60         O  0.14026054  0.53907291  0.27721838    -0.78300
O61         O  0.28473420  0.46451298  0.23354049    -0.77000
C62         C  0.15729459  0.46321166  0.18360916     0.85500
C63         C  0.18980047  0.57114247  0.18342253     0.85200
O64         O  0.26872824  0.49793794  0.18889777    -0.75900
C65         C  0.28675385  0.53713922  0.29533208     0.86000
O66         O  0.19016772  0.46249468  0.18050939    -0.76000
C67         C  0.15534862  0.55803157  0.29972940     0.86100
C68         C  0.18428469  0.44759228  0.31061379     0.86500
O69         O  0.16203854  0.46309895  0.29198428    -0.78500
O70         O  0.53282347  0.18331478  0.20011199    -0.76000
C71         C  0.47203756  0.21282885  0.29181107     0.85100
O72         O  0.47264127  0.21726988  0.14207042    -0.77100
O73         O  0.43592689  0.30960846  0.21665920    -0.78600
O74         O  0.54874911  0.28362712  0.27418793    -0.78400
O75         O  0.57620001  0.22153394  0.20186122    -0.77000
Zn76       Zn  0.49308935  0.20630588  0.21926906     1.55700
O77         O  0.49668053  0.30949148  0.27346084    -0.78400
Cd78       Cd  0.54803573  0.26514829  0.22189443     1.59700
Cd79       Cd  0.49017526  0.26169645  0.16505061     1.59600
O80         O  0.55681797  0.30663863  0.18888110    -0.78400
O81         O  0.49977678  0.25323415  0.21336822    -1.88900
Cd82       Cd  0.46831939  0.27622266  0.24505194     1.59900
O83         O  0.53152003  0.28487534  0.14154785    -0.78300
O84         O  0.45575104  0.24112499  0.28520317    -0.77000
C85         C  0.45644327  0.19249015  0.15656951     0.85500
C86         C  0.56349117  0.19203665  0.19292227     0.85200
O87         O  0.48888792  0.19654988  0.26881542    -0.75900
C88         C  0.52571244  0.30369776  0.28773981     0.86000
O89         O  0.45523435  0.18867818  0.18933853    -0.76000
C90         C  0.54967599  0.30794494  0.15659818     0.86100
C91         C  0.43774717  0.31762306  0.18443165     0.86500
O92         O  0.45488736  0.30026755  0.16244264    -0.78500
O93         O  0.17661368  0.21360051  0.52968877    -0.76000
C94         C  0.20912393  0.30526604  0.47131941     0.85100
O95         O  0.20673678  0.15458230  0.47196882    -0.77100
O96         O  0.30295873  0.22514817  0.43422796    -0.78600
O97         O  0.27965579  0.28324198  0.54779255    -0.78400
O98         O  0.21394837  0.21435260  0.57400558    -0.77000
Zn99       Zn  0.20013508  0.23213874  0.49021299     1.55700
O100        O  0.30651280  0.28173551  0.49632731    -0.78400
Cd101      Cd  0.25867024  0.23217219  0.54644028     1.59700
Cd102      Cd  0.25295833  0.17561593  0.48870187     1.59600
O103        O  0.29843076  0.19749091  0.55712039    -0.78400
O104        O  0.24696431  0.22446307  0.49785542    -1.88900
Cd105      Cd  0.27152444  0.25578068  0.46710873     1.59900
O106        O  0.27742397  0.15116532  0.52949129    -0.78300
O107        O  0.23786986  0.29834202  0.45587702    -0.77000
C108        C  0.18278466  0.16985264  0.45494563     0.85500
C109        C  0.18446348  0.20632232  0.56058650     0.85200
O110        O  0.19162332  0.28207648  0.48658976    -0.75900
C111        C  0.30096035  0.29590697  0.52543871     0.86000
O112        O  0.18101737  0.20271631  0.45246490    -0.76000
C113        C  0.29950848  0.16533137  0.54962846     0.86100
C114        C  0.30835940  0.19227638  0.43493001     0.86500
O115        O  0.28978078  0.17126831  0.45197408    -0.78500
O116        O  0.76525586  0.51952029  0.18568456    -0.76000
C117        C  0.68947869  0.44522167  0.18705029     0.85100
O118        O  0.63952684  0.54040217  0.20975354    -0.77100
O119        O  0.68642410  0.45388215  0.29924606    -0.78600
O120        O  0.77601589  0.51737329  0.29769456    -0.78400
O121        O  0.78187970  0.55645309  0.22708560    -0.77000
Zn122      Zn  0.71609350  0.51610111  0.19769169     1.55700
O123        O  0.77202767  0.46210689  0.28008259    -0.78400
Cd124      Cd  0.74438904  0.54377140  0.26527975     1.59700
Cd125      Cd  0.66333728  0.52094439  0.25367117     1.59600
O126        O  0.71661580  0.57591539  0.29962220    -0.78400
O127        O  0.71185260  0.51096784  0.24510248    -1.88900
Cd128      Cd  0.72048021  0.46299085  0.25878480     1.59900
O129        O  0.66241746  0.55564483  0.29266091    -0.78300
O130        O  0.70062853  0.43312002  0.21612273    -0.77000
C131        C  0.65414305  0.55541943  0.18422894     0.85500
C132        C  0.78812613  0.53851656  0.19969424     0.85200
O133        O  0.69530566  0.47589159  0.17748571    -0.75900
C134        C  0.78721787  0.48652552  0.29721783     0.86000
O135        O  0.68674097  0.55413072  0.17929343    -0.76000
C136        C  0.68477070  0.57337812  0.30899035     0.86100
C137        C  0.65405143  0.46066529  0.29993542     0.86500
O138        O  0.63939070  0.47969347  0.27721010    -0.78500
O139        O  0.02085785  0.32404215  0.23197264    -0.76000
C140        C  0.94565855  0.33072422  0.30429882     0.85100
O141        O  0.03723407  0.29926676  0.35903296    -0.77100
O142        O  0.94594955  0.21692893  0.31110592    -0.78600
O143        O  0.00744158  0.20968218  0.22579789    -0.78400
O144        O  0.04866968  0.27721394  0.21238144    -0.77000
Zn145      Zn  0.01682829  0.31334326  0.28160810     1.55700
O146        O  0.95697584  0.23834542  0.22531746    -0.78400
Cd147      Cd  0.03753609  0.24227171  0.25351487     1.59700
Cd148      Cd  0.01747647  0.25600114  0.33471255     1.59600
O149        O  0.06937509  0.20707816  0.28090217    -0.78400
O150        O  0.00792593  0.26635105  0.28658122    -1.88900
Cd151      Cd  0.95892013  0.25693090  0.27736367     1.59900
O152        O  0.05058926  0.21531897  0.33540271    -0.78300
O153        O  0.93187257  0.30206497  0.29448655    -0.77000
C154        C  0.05292753  0.32503835  0.34562613     0.85500
C155        C  0.03426384  0.30686198  0.20739522     0.85200
O156        O  0.97730308  0.33742263  0.29969686    -0.75900
C157        C  0.97865287  0.21696293  0.21168224     0.86000
O158        O  0.05414139  0.33014293  0.31300822    -0.76000
C159        C  0.06719538  0.19806085  0.31289372     0.86100
C160        C  0.95328085  0.21450082  0.34332366     0.86500
O161        O  0.97483321  0.23462927  0.35818763    -0.78500
O162        O  0.80605037  0.04164626  0.31921530    -0.76000
C163        C  0.71140288  0.98185097  0.29710620     0.85100
O164        O  0.86043143  0.97819190  0.28807675    -0.77100
O165        O  0.78348011  0.94206344  0.19726911    -0.78600
O166        O  0.72893519  0.05581036  0.21799684    -0.78400
O167        O  0.80050970  0.08425843  0.28048410    -0.77000
Zn168      Zn  0.78436300  0.00165348  0.29935777     1.55700
O169        O  0.72565170  0.00120499  0.19839999    -0.78400
Cd170      Cd  0.78043197  0.05431019  0.23840196     1.59700
Cd171      Cd  0.83702518  0.99637729  0.24357127     1.59600
O172        O  0.81424611  0.06340633  0.19796429    -0.78400
O173        O  0.78866245  0.00641450  0.25201477    -1.88900
Cd174      Cd  0.75574696  0.97432409  0.23166228     1.59900
O175        O  0.86111140  0.03779735  0.22053892    -0.78300
O176        O  0.71685659  0.96397116  0.26946377    -0.77000
C177        C  0.84585911  0.96358118  0.31384174     0.85500
C178        C  0.81192580  0.07224459  0.30942830     0.85200
O179        O  0.73516910  0.99946523  0.31144441    -0.75900
C180        C  0.71409954  0.03186208  0.20001807     0.86000
O181        O  0.81314784  0.96360783  0.31805289    -0.76000
C182        C  0.84669677  0.05707791  0.19789082     0.86100
C183        C  0.81536014  0.94453596  0.18790175     0.86500
O184        O  0.83792966  0.96170286  0.20456852    -0.78500
O185        O  0.68671429  0.74338798  0.48998606    -0.76000
C186        C  0.68715767  0.82062954  0.56394111     0.85100
O187        O  0.70800670  0.86920388  0.47042128    -0.77100
O188        O  0.80008692  0.82388852  0.55393413    -0.78600
O189        O  0.79800563  0.73538874  0.49060190    -0.78400
O190        O  0.72775357  0.72815127  0.45209682    -0.77000
Zn191      Zn  0.69739124  0.79288443  0.49332918     1.55700
O192        O  0.77899454  0.73830887  0.54552646    -0.78400
Cd193      Cd  0.76531969  0.76666748  0.46439744     1.59700
Cd194      Cd  0.75266319  0.84672362  0.48857814     1.59600
O195        O  0.79962266  0.79564396  0.43302447    -0.78400
O196        O  0.74481298  0.79823763  0.49775885    -1.88900
Cd197      Cd  0.75910581  0.79007594  0.54543300     1.59900
O198        O  0.79112444  0.84944429  0.45355085    -0.78300
O199        O  0.71681420  0.81035780  0.57543153    -0.77000
C200        C  0.68273000  0.85435864  0.45516116     0.85500
C201        C  0.70102577  0.72097440  0.47070990     0.85200
O202        O  0.67677166  0.81378909  0.53364660    -0.75900
C203        C  0.79626875  0.72337538  0.52110824     0.86000
O204        O  0.67855809  0.82167097  0.45527641    -0.76000
C205        C  0.80816681  0.82769991  0.43584171     0.86100
C206        C  0.79971075  0.85638600  0.54801174     0.86500
O207        O  0.77593716  0.87071117  0.53002390    -0.78500
C208        C  0.95215183  0.86274258  0.37610921     0.89000
C209        C  0.97368280  0.88511645  0.40159135    -0.51200
C210        C  0.95350135  0.90744746  0.42105815     0.11900
C211        C  0.91397453  0.90407779  0.41319167     0.22900
C212        C  0.92565831  0.84393578  0.39833642    -0.51900
C213        C  0.90443973  0.86519202  0.41646561     0.12000
C214        C  0.93132228  0.88897874  0.35487358    -0.51500
C215        C  0.91146469  0.91034880  0.37423796     0.12600
H216        H  0.00182749  0.88489605  0.40261952     0.17100
H217        H  0.89729646  0.92155686  0.42886517     0.02900
H218        H  0.92020552  0.81644119  0.39514291     0.17400
H219        H  0.93091177  0.88948905  0.32664891     0.17200
C220        C  0.85467172  0.13899339  0.44419967     0.89000
C221        C  0.83871100  0.11853355  0.41463006    -0.51200
C222        C  0.86209038  0.10314715  0.39355752     0.11900
C223        C  0.90020670  0.10722399  0.40590668     0.22900
C224        C  0.87673922  0.11286131  0.46491400    -0.51900
C225        C  0.90124776  0.09585406  0.44509180     0.12000
C226        C  0.88097781  0.16319918  0.42718629    -0.51500
C227        C  0.90447808  0.14682505  0.40687456     0.12600
H228        H  0.81127277  0.12027342  0.40800823     0.17100
H229        H  0.91937386  0.09395241  0.38902646     0.02900
H230        H  0.87392149  0.10893502  0.49264017     0.17400
H231        H  0.87936102  0.19130421  0.42876521     0.17200
C232        C  0.86470712  0.96735975  0.63959374     0.89000
C233        C  0.88582169  0.94111663  0.66013586    -0.51200
C234        C  0.90469353  0.91922847  0.64034286     0.11900
C235        C  0.90270834  0.92740065  0.60100043     0.22900
C236        C  0.89119300  0.98779852  0.61772944    -0.51900
C237        C  0.91141219  0.96692819  0.59683641     0.12000
C238        C  0.84398313  0.94617740  0.61336870    -0.51500
C239        C  0.86362553  0.92503963  0.59345295     0.12600
H240        H  0.88205731  0.93689768  0.68779473     0.17100
H241        H  0.91861421  0.90973967  0.58476507     0.02900
H242        H  0.89300025  0.01585804  0.61793500     0.17400
H243        H  0.81575302  0.94595086  0.61241297     0.17200
C244        C  0.13113875  0.05713497  0.35764635     0.89000
C245        C  0.10445739  0.03606503  0.37876406    -0.51200
C246        C  0.08194238  0.05663339  0.39746002     0.11900
C247        C  0.08853060  0.09614396  0.39227041     0.22900
C248        C  0.10991737  0.08140556  0.33482330    -0.51900
C249        C  0.08870870  0.10294801  0.35265461     0.12000
C250        C  0.14886153  0.08047473  0.38428455    -0.51500
C251        C  0.12664783  0.10090835  0.40214694     0.12600
H252        H  0.10485023  0.00800917  0.38066051     0.17100
H253        H  0.07052494  0.11317101  0.40694055     0.02900
H254        H  0.11555167  0.08516532  0.30742799     0.17400
H255        H  0.17688472  0.08216243  0.38740611     0.17200
C256        C  0.04710710  0.16206711  0.62388222     0.89000
C257        C  0.07468889  0.18025676  0.60248307    -0.51200
C258        C  0.09622553  0.15860323  0.58528052     0.11900
C259        C  0.08567475  0.11999222  0.58808903     0.22900
C260        C  0.02590988  0.13999413  0.59784068    -0.51900
C261        C  0.04613330  0.11707610  0.57901109     0.12000
C262        C  0.06678779  0.13548118  0.64585893    -0.51500
C263        C  0.08695809  0.11376829  0.62710058     0.12600
H264        H  0.08051521  0.20767284  0.60574023     0.17100
H265        H  0.10276753  0.10231632  0.57311277     0.02900
H266        H  0.99782709  0.14099616  0.59592698     0.17400
H267        H  0.06665268  0.13534849  0.67408149     0.17200
C268        C  0.14370920  0.88540895  0.55193244     0.89000
C269        C  0.12386525  0.91425637  0.53234164    -0.51200
C270        C  0.10012122  0.93161127  0.55279539     0.11900
C271        C  0.09981095  0.91839912  0.59118905     0.22900
C272        C  0.16056313  0.90311384  0.58273820    -0.51900
C273        C  0.13803944  0.91940046  0.60400144     0.12000
C274        C  0.11540362  0.86236321  0.56731221    -0.51500
C275        C  0.09273608  0.87941091  0.58800289     0.12600
H276        H  0.12645655  0.91877250  0.50468259     0.17100
H277        H  0.08127220  0.93207986  0.60844879     0.02900
H278        H  0.18789700  0.89992860  0.58923378     0.17400
H279        H  0.11490170  0.83434610  0.56422571     0.17200
O280        O  0.02812521  0.03274145  0.41869818    -0.76000
C281        C  0.96795035  0.93623286  0.44306661     0.85100
O282        O  0.93265114  0.07101085  0.49377274    -0.77100
O283        O  0.95592551  0.95903053  0.55413988    -0.78600
O284        O  0.08031670  0.98502977  0.52610319    -0.78400
O285        O  0.07079644  0.04233332  0.45683172    -0.77000
Zn286      Zn  0.98596233  0.01575069  0.44824751     1.55700
O287        O  0.04128972  0.94351443  0.53623890    -0.78400
Cd288      Cd  0.04989300  0.02666444  0.50510618     1.59700
Cd289      Cd  0.96793728  0.04435279  0.52766416     1.59600
O290        O  0.05341530  0.06961409  0.53922980    -0.78400
O291        O  0.99916161  0.01264156  0.49854171    -1.88900
Cd292      Cd  0.99408076  0.96259988  0.51524620     1.59900
O293        O  0.99901247  0.08243007  0.55455555    -0.78300
O294        O  0.97766042  0.92980877  0.47418918    -0.77000
C295        C  0.92800979  0.07150101  0.46072063     0.85500
C296        C  0.05903042  0.04287174  0.42572549     0.85200
O297        O  0.96925011  0.96708339  0.43064489    -0.75900
C298        C  0.07247874  0.95486062  0.53771205     0.86000
O299        O  0.94624069  0.05210414  0.44083109    -0.76000
C300        C  0.03184891  0.08842301  0.55610866     0.86100
C301        C  0.93690674  0.98074555  0.57044056     0.86500
O302        O  0.93875346  0.01345259  0.56401305    -0.78500
O303        O  0.82575566  0.30670001  0.52801345    -0.76000
C304        C  0.79263831  0.21778492  0.46582293     0.85100
O305        O  0.79491576  0.36660792  0.47039972    -0.77100
O306        O  0.69677878  0.29693195  0.43394795    -0.78600
O307        O  0.72343719  0.23793722  0.54611429    -0.78400
O308        O  0.78864847  0.30622010  0.57225970    -0.77000
Zn309      Zn  0.80119031  0.28921351  0.48859393     1.55700
O310        O  0.69742979  0.23740116  0.49399029    -0.78400
Cd311      Cd  0.74361614  0.28923086  0.54466163     1.59700
Cd312      Cd  0.74858750  0.34605379  0.48691976     1.59600
O313        O  0.70425227  0.32422243  0.55563174    -0.78400
O314        O  0.75454885  0.29718792  0.49606427    -1.88900
Cd315      Cd  0.72997291  0.26618750  0.46484235     1.59900
O316        O  0.72575355  0.37050578  0.52837636    -0.78300
O317        O  0.76428951  0.22561780  0.44998839    -0.77000
C318        C  0.81899065  0.35108666  0.45394733     0.85500
C319        C  0.81824723  0.31370623  0.55899819     0.85200
O320        O  0.80934741  0.23973677  0.48359039    -0.75900
C321        C  0.70307386  0.22406458  0.52351633     0.86000
O322        O  0.82030481  0.31828582  0.45113955    -0.76000
C323        C  0.70363620  0.35647811  0.54843650     0.86100
C324        C  0.69148453  0.32978981  0.43458783     0.86500
O325        O  0.71078337  0.35089948  0.45083020    -0.78500
O326        O  0.02521710  0.69358136  0.70064309    -0.76000
C327        C  0.96523300  0.72236996  0.79317862     0.85100
O328        O  0.96311758  0.72270037  0.64397792    -0.77100
O329        O  0.92882183  0.82007097  0.71600831    -0.78600
O330        O  0.04326150  0.79731809  0.77012246    -0.78400
O331        O  0.06820655  0.73219968  0.70092258    -0.77000
Zn332      Zn  0.98557956  0.71587473  0.72062330     1.55700
O333        O  0.98934943  0.81879655  0.77472563    -0.78400
Cd334      Cd  0.03959374  0.77575275  0.71939926     1.59700
Cd335      Cd  0.98003091  0.76894292  0.66455055     1.59600
O336        O  0.04868092  0.81463198  0.68367425    -0.78400
O337        O  0.99105944  0.76293490  0.71324288    -1.88900
Cd338      Cd  0.96029131  0.78606319  0.74575623     1.59900
O339        O  0.02039006  0.79206168  0.63841037    -0.78300
O340        O  0.94810908  0.75021085  0.78625273    -0.77000
C341        C  0.94844220  0.69769699  0.65976002     0.85500
C342        C  0.05563281  0.70250563  0.69273772     0.85200
O343        O  0.98285677  0.70671748  0.77034434    -0.75900
C344        C  0.02034638  0.81613441  0.78547571     0.86000
O345        O  0.94757388  0.69556742  0.69266349    -0.76000
C346        C  0.04100666  0.81430681  0.65150411     0.86100
C347        C  0.92866114  0.82589152  0.68315575     0.86500
O348        O  0.94384660  0.80661531  0.66130651    -0.78500
C349        C  0.12257090  0.56658395  0.64952630     0.89000
C350        C  0.10199938  0.59524035  0.66696088    -0.51200
C351        C  0.08438365  0.61589949  0.64465570     0.11900
C352        C  0.08654051  0.60394167  0.60631427     0.22900
C353        C  0.09580510  0.54508139  0.62885451    -0.51900
C354        C  0.07690908  0.56462000  0.60546353     0.12000
C355        C  0.14432724  0.58470195  0.62187419    -0.51500
C356        C  0.12553371  0.60429802  0.59963054     0.12600
H357        H  0.10546718  0.60187597  0.69419615     0.17100
H358        H  0.07141077  0.62031074  0.58800405     0.02900
H359        H  0.09388992  0.51707867  0.63054600     0.17400
H360        H  0.17256463  0.58416127  0.62146776     0.17200
C361        C  0.15106803  0.38874809  0.45505118     0.89000
C362        C  0.16901458  0.41113850  0.42811815    -0.51200
C363        C  0.14702071  0.42848606  0.40688949     0.11900
C364        C  0.10829116  0.42422884  0.41668738     0.22900
C365        C  0.12824401  0.41394301  0.47637052    -0.51900
C366        C  0.10517380  0.43258179  0.45611292     0.12000
C367        C  0.12518138  0.36659033  0.43468816    -0.51500
C368        C  0.10311375  0.38509036  0.41460760     0.12600
H369        H  0.19658759  0.40867571  0.42250787     0.17100
H370        H  0.09025197  0.43926270  0.39991763     0.02900
H371        H  0.12896031  0.41558344  0.50446092     0.17400
H372        H  0.12575993  0.33839944  0.43436574     0.17200
C373        C  0.85466021  0.64023505  0.54764233     0.89000
C374        C  0.87690087  0.61433535  0.52675683    -0.51200
C375        C  0.89690596  0.59288016  0.54742670     0.11900
C376        C  0.89117466  0.59956262  0.58715171     0.22900
C377        C  0.83282321  0.61838586  0.57208550    -0.51900
C378        C  0.85156456  0.59855445  0.59425553     0.12000
C379        C  0.88054780  0.65919988  0.57082296    -0.51500
C380        C  0.89938048  0.63798182  0.59150186     0.12600
H381        H  0.87823581  0.61437943  0.49864296     0.17100
H382        H  0.90653233  0.58247134  0.60457684     0.02900
H383        H  0.80521508  0.62310733  0.57576333     0.17400
H384        H  0.88234509  0.68730043  0.57236493     0.17200
C385        C  0.87093029  0.46182840  0.35728306     0.89000
C386        C  0.89703098  0.48393610  0.37843517    -0.51200
C387        C  0.91980790  0.46431034  0.39821625     0.11900
C388        C  0.91415349  0.42447217  0.39336916     0.22900
C389        C  0.89292073  0.43759119  0.33536797    -0.51900
C390        C  0.91431857  0.41681737  0.35392744     0.12000
C391        C  0.85355923  0.43872177  0.38417906    -0.51500
C392        C  0.87609629  0.41920516  0.40276855     0.12600
H393        H  0.89615063  0.51202526  0.37932089     0.17100
H394        H  0.93220991  0.40783071  0.40850148     0.02900
H395        H  0.88773769  0.43322904  0.30793966     0.17400
H396        H  0.82555453  0.43640669  0.38691865     0.17200
C397        C  0.95095942  0.36953933  0.62941464     0.89000
C398        C  0.92625944  0.34662471  0.60890891    -0.51200
C399        C  0.90492063  0.36419626  0.58719270     0.11900
C400        C  0.91262758  0.40358837  0.58548819     0.22900
C401        C  0.97248406  0.38947609  0.60221221    -0.51900
C402        C  0.95238917  0.40799918  0.57901325     0.12000
C403        C  0.92801561  0.39710792  0.64612840    -0.51500
C404        C  0.90794128  0.41463244  0.62315608     0.12600
H405        H  0.92203905  0.31950439  0.61540875     0.17100
H406        H  0.89585214  0.41797882  0.56694093     0.02900
H407        H  0.00058073  0.39126270  0.60310977     0.17400
H408        H  0.92602831  0.40084584  0.67402624     0.17200
C409        C  0.05107419  0.65218186  0.36754413     0.89000
C410        C  0.03059824  0.63181705  0.39525031    -0.51200
C411        C  0.05117601  0.61050830  0.41555407     0.11900
C412        C  0.09070372  0.61301680  0.40581623     0.22900
C413        C  0.07877283  0.67216748  0.38724257    -0.51900
C414        C  0.10040214  0.65209436  0.40629031     0.12000
C415        C  0.07058462  0.62459239  0.34722084    -0.51500
C416        C  0.09150521  0.60439232  0.36689515     0.12600
H417        H  0.00254575  0.63290174  0.39745002     0.17100
H418        H  0.10827121  0.59648499  0.42161547     0.02900
H419        H  0.08354485  0.69963776  0.38302334     0.17400
H420        H  0.06988066  0.62278886  0.31904935     0.17200
O421        O  0.04530232  0.44377437  0.46991845    -0.76000
C422        C  0.96694565  0.43690966  0.55721205     0.85100
O423        O  0.94377253  0.51185212  0.43221426    -0.77100
O424        O  0.94232631  0.55067347  0.55498207    -0.78600
O425        O  0.06844677  0.54732727  0.54625600    -0.78400
O426        O  0.08376511  0.48539604  0.48185990    -0.77000
Zn427      Zn  0.99668029  0.46217805  0.48570167     1.55700
O428        O  0.02520351  0.53683692  0.58334760    -0.78400
Cd429      Cd  0.05144568  0.52726013  0.49773104     1.59700
Cd430      Cd  0.97078099  0.54292942  0.46976819     1.59600
O431        O  0.05746639  0.56676715  0.45990906    -0.78400
O432        O  0.00075618  0.51164714  0.50082075    -1.88900
Cd433      Cd  0.98494975  0.51621569  0.55128233     1.59900
O434        O  0.00351661  0.57901676  0.44243307    -0.78300
O435        O  0.96850579  0.46736247  0.57036873    -0.77000
C436        C  0.94351015  0.47913571  0.42598700     0.85500
C437        C  0.07663626  0.45503908  0.47043551     0.85200
O438        O  0.97706267  0.43111368  0.52605281    -0.75900
C439        C  0.05559821  0.54865495  0.57687872     0.86000
O440        O  0.96227525  0.45835354  0.44400521    -0.76000
C441        C  0.03648749  0.58427354  0.44093599     0.86100
C442        C  0.92536852  0.56958999  0.53352722     0.86500
O443        O  0.93301143  0.56975607  0.50102717    -0.78500
C444        C  0.64066838  0.37999383  0.05212439     0.89000
C445        C  0.62005767  0.40749001  0.03169024    -0.51200
C446        C  0.59745956  0.42630691  0.05206773     0.11900
C447        C  0.59895954  0.41538020  0.09139785     0.22900
C448        C  0.65906948  0.39942236  0.08103102    -0.51900
C449        C  0.63762244  0.41663183  0.10270588     0.12000
C450        C  0.61314350  0.35804355  0.07001709    -0.51500
C451        C  0.59165327  0.37631313  0.09086764     0.12600
H452        H  0.62209360  0.41077545  0.00381138     0.17100
H453        H  0.58131269  0.43014380  0.10869207     0.02900
H454        H  0.68645962  0.39555156  0.08690425     0.17400
H455        H  0.61279184  0.32986238  0.06891446     0.17200
C456        C  0.54878353  0.66147368  0.12444813     0.89000
C457        C  0.57482642  0.68078390  0.10220842    -0.51200
C458        C  0.59638686  0.65994153  0.08404747     0.11900
C459        C  0.58762393  0.62082508  0.08738505     0.22900
C460        C  0.52763916  0.63876206  0.09909944    -0.51900
C461        C  0.54809572  0.61682914  0.07960091     0.12000
C462        C  0.57018835  0.63567415  0.14577848    -0.51500
C463        C  0.59035105  0.61453756  0.12638922     0.12600
H464        H  0.57963186  0.70841769  0.10525009     0.17100
H465        H  0.60452552  0.60362341  0.07164860     0.02900
H466        H  0.49948656  0.63837319  0.09828524     0.17400
H467        H  0.57028105  0.63493428  0.17399079     0.17200
C468        C  0.44927010  0.36974800  0.87135744     0.89000
C469        C  0.46952044  0.39154131  0.89802410    -0.51200
C470        C  0.44908427  0.41496766  0.91571536     0.11900
C471        C  0.40976850  0.41322567  0.90439091     0.22900
C472        C  0.42023079  0.35244042  0.89146815    -0.51900
C473        C  0.39850520  0.37476319  0.90754026     0.12000
C474        C  0.43132923  0.39617988  0.84785882    -0.51500
C475        C  0.41029243  0.41858053  0.86483886     0.12600
H476        H  0.49733936  0.38927646  0.90189435     0.17100
H477        H  0.39240301  0.43155086  0.91821713     0.02900
H478        H  0.41441850  0.32494640  0.88898725     0.17400
H479        H  0.43266545  0.39520871  0.81968392     0.17200
C480        C  0.35500172  0.63905518  0.95220703     0.89000
C481        C  0.33488463  0.61698801  0.92644837    -0.51200
C482        C  0.35512402  0.59693181  0.90598071     0.11900
C483        C  0.39412370  0.59832278  0.91552974     0.22900
C484        C  0.37595913  0.61316182  0.97464845    -0.51900
C485        C  0.39708283  0.59176403  0.95520658     0.12000
C486        C  0.38234768  0.65798548  0.93076359    -0.51500
C487        C  0.40255036  0.63664610  0.91164548     0.12600
H488        H  0.30758699  0.62161599  0.92070215     0.17100
H489        H  0.41068425  0.58105298  0.89949671     0.02900
H490        H  0.37587936  0.61325907  0.00278668     0.17400
H491        H  0.38422478  0.68607446  0.92917369     0.17200
C492        C  0.63250560  0.56203523  0.86111575     0.89000
C493        C  0.60525132  0.54098505  0.88164363    -0.51200
C494        C  0.58474610  0.56111599  0.90314090     0.11900
C495        C  0.59380538  0.60072998  0.90059219     0.22900
C496        C  0.61215154  0.58941563  0.84130469    -0.51900
C497        C  0.59312972  0.61079962  0.86156540     0.12000
C498        C  0.65265075  0.58180160  0.88875508    -0.51500
C499        C  0.63262369  0.60208776  0.90915840     0.12600
H500        H  0.60356787  0.51293870  0.88060519     0.17100
H501        H  0.57779780  0.61789735  0.91725164     0.02900
H502        H  0.61651689  0.59464531  0.81391342     0.17400
H503        H  0.68085153  0.58171472  0.89048603     0.17200
C504        C  0.37631180  0.46144154  0.14969561     0.89000
C505        C  0.39810487  0.43482695  0.16903444    -0.51200
C506        C  0.41695319  0.41389933  0.14807680     0.11900
C507        C  0.41456412  0.42366424  0.10916960     0.22900
C508        C  0.40215989  0.48305462  0.12821601    -0.51900
C509        C  0.42220401  0.46317567  0.10631445     0.12000
C510        C  0.35572031  0.44068525  0.12283530    -0.51500
C511        C  0.37577679  0.42095306  0.10190367     0.12600
H512        H  0.39423920  0.42917680  0.19641703     0.17100
H513        H  0.43079624  0.40720597  0.09199416     0.02900
H514        H  0.40284103  0.51116622  0.12845104     0.17400
H515        H  0.32750833  0.44014654  0.12169082     0.17200
O516        O  0.45644402  0.58038676  0.97020596    -0.76000
C517        C  0.53365651  0.58751617  0.05841250     0.85100
O518        O  0.55901246  0.51330859  0.93567957    -0.77100
O519        O  0.55474608  0.47129834  0.05831776    -0.78600
O520        O  0.43150254  0.47820173  0.04676400    -0.78400
O521        O  0.41751885  0.53913144  0.98175788    -0.77000
Zn522      Zn  0.50446798  0.56214230  0.98710178     1.55700
O523        O  0.47382022  0.49050399  0.08456657    -0.78400
Cd524      Cd  0.44924934  0.49739824  0.99834933     1.59700
Cd525      Cd  0.52999484  0.48154021  0.97153636     1.59600
O526        O  0.44292588  0.45816937  0.96045907    -0.78400
O527        O  0.49993061  0.51279117  0.00210547    -1.88900
Cd528      Cd  0.51496375  0.50854338  0.05286859     1.59900
O529        O  0.49683971  0.44656229  0.94271954    -0.78300
O530        O  0.53321796  0.55699048  0.07150299    -0.77000
C531        C  0.55985087  0.54615889  0.92980224     0.85500
C532        C  0.42507293  0.56931275  0.97029526     0.85200
O533        O  0.52253936  0.59320667  0.02759593    -0.75900
C534        C  0.44369982  0.47828247  0.07773114     0.86000
O535        O  0.54046226  0.56684951  0.94709656    -0.76000
C536        C  0.46384869  0.44116496  0.94114898     0.86100
C537        C  0.57126554  0.45167139  0.03731670     0.86500
O538        O  0.56517744  0.45267681  0.00442280    -0.78500
O539        O  0.29746240  0.48676477  0.67438893    -0.76000
C540        C  0.20709308  0.54871201  0.70597072     0.85100
O541        O  0.35708429  0.54401459  0.70735051    -0.77100
O542        O  0.28523221  0.58132727  0.80202087    -0.78600
O543        O  0.22556780  0.47011782  0.77636485    -0.78400
O544        O  0.29434064  0.44237081  0.71129578    -0.77000
Zn545      Zn  0.27928519  0.52628516  0.69837493     1.55700
O546        O  0.22548914  0.52282521  0.80094809    -0.78400
Cd547      Cd  0.27707902  0.47003733  0.75628626     1.59700
Cd548      Cd  0.33507502  0.52632154  0.75259918     1.59600
O549        O  0.31147935  0.45792904  0.79624851    -0.78400
O550        O  0.28616396  0.51837190  0.74515289    -1.88900
Cd551      Cd  0.25524168  0.55068712  0.76836687     1.59900
O552        O  0.35855781  0.48391783  0.77500002    -0.78300
O553        O  0.21497096  0.56528958  0.73377635    -0.77000
C554        C  0.34229043  0.56089500  0.68302232     0.85500
C555        C  0.30339873  0.45557515  0.68206455     0.85200
O556        O  0.22937273  0.53118461  0.68938270    -0.75900
C557        C  0.21194964  0.49330462  0.79616946     0.86000
O558        O  0.30945686  0.56372767  0.68062528    -0.76000
C559        C  0.34397576  0.46423269  0.79710115     0.86100
C560        C  0.31754618  0.57835815  0.80959719     0.86500
O561        O  0.33887782  0.56090805  0.79169522    -0.78500
C562        C  0.64567751  0.63560101  0.45172705     0.89000
C563        C  0.62340005  0.60969013  0.47259289    -0.51200
C564        C  0.60263551  0.58903772  0.45183236     0.11900
C565        C  0.60761050  0.59633501  0.41231472     0.22900
C566        C  0.66658792  0.61378089  0.42644332    -0.51900
C567        C  0.64698729  0.59442807  0.40466026     0.12000
C568        C  0.61957108  0.65544728  0.42941251    -0.51500
C569        C  0.59992458  0.63495337  0.40882775     0.12600
H570        H  0.62257792  0.60920120  0.50072170     0.17100
H571        H  0.59162811  0.57985997  0.39487997     0.02900
H572        H  0.69417673  0.61799508  0.42215329     0.17400
H573        H  0.61798018  0.68359174  0.42857335     0.17200
C574        C  0.62504950  0.45781178  0.64388681     0.89000
C575        C  0.59812886  0.47731020  0.62168857    -0.51200
C576        C  0.58195039  0.45671900  0.59718881     0.11900
C577        C  0.59472177  0.41792635  0.59863894     0.22900
C578        C  0.60569583  0.42770748  0.66004877    -0.51900
C579        C  0.59123428  0.40567955  0.63690662     0.12000
C580        C  0.64988866  0.44151210  0.61769679    -0.51500
C581        C  0.63427892  0.42041638  0.59434338     0.12600
H582        H  0.59335178  0.50491604  0.62418140     0.17100
H583        H  0.58207268  0.40043322  0.57956175     0.02900
H584        H  0.60786176  0.42145154  0.68751935     0.17400
H585        H  0.67796378  0.44413122  0.61931907     0.17200
C586        C  0.45421879  0.65585456  0.62382080     0.89000
C587        C  0.47512862  0.63266612  0.59891212    -0.51200
C588        C  0.45434085  0.61195837  0.57836678     0.11900
C589        C  0.41469167  0.61780286  0.58482511     0.22900
C590        C  0.42967676  0.67674424  0.60104878    -0.51900
C591        C  0.40764565  0.65723439  0.58192852     0.12000
C592        C  0.43116604  0.63076056  0.64396270    -0.51500
C593        C  0.41051139  0.61108020  0.62358509     0.12600
H594        H  0.50326525  0.63143218  0.59881303     0.17100
H595        H  0.39727159  0.60180167  0.56835201     0.02900
H596        H  0.42582196  0.70446409  0.60465901     0.17400
H597        H  0.42994157  0.62987165  0.67214978     0.17200
C598        C  0.36793197  0.56530564  0.35581644     0.89000
C599        C  0.38760893  0.59380220  0.33720868    -0.51200
C600        C  0.40617390  0.61466446  0.35845696     0.11900
C601        C  0.40534848  0.60340903  0.39714328     0.22900
C602        C  0.39563834  0.54419185  0.37567272    -0.51900
C603        C  0.41550683  0.56396259  0.39797028     0.12000
C604        C  0.34707228  0.58363589  0.38391010    -0.51500
C605        C  0.36629883  0.60393265  0.40514663     0.12600
H606        H  0.38360170  0.59970134  0.30987565     0.17100
H607        H  0.42096529  0.62014531  0.41464939     0.02900
H608        H  0.39787988  0.51621095  0.37392716     0.17400
H609        H  0.31884608  0.58318706  0.38488533     0.17200
C610        C  0.54939486  0.36504855  0.36884607     0.89000
C611        C  0.57715126  0.34741596  0.39059736    -0.51200
C612        C  0.59755889  0.36957731  0.40858079     0.11900
C613        C  0.58665718  0.40808267  0.40501583     0.22900
C614        C  0.52752419  0.38648967  0.39467689    -0.51900
C615        C  0.54708336  0.40961734  0.41381587     0.12000
C616        C  0.56854972  0.39187238  0.34705914    -0.51500
C617        C  0.58827684  0.41403711  0.36572247     0.12600
H618        H  0.58333392  0.32000808  0.38800279     0.17100
H619        H  0.60302734  0.42627629  0.42023128     0.02900
H620        H  0.49946994  0.38483823  0.39643127     0.17400
H621        H  0.56867105  0.39165282  0.31882358     0.17200
C622        C  0.35817600  0.38044014  0.55154289     0.89000
C623        C  0.33616786  0.40147931  0.57650781    -0.51200
C624        C  0.35453361  0.42340047  0.59686561     0.11900
C625        C  0.39384908  0.42451731  0.58809894     0.22900
C626        C  0.37771805  0.40707032  0.52898118    -0.51900
C627        C  0.39715031  0.43024103  0.54811969     0.12000
C628        C  0.38632110  0.36377391  0.57389711    -0.51500
C629        C  0.40477780  0.38681635  0.59293736     0.12600
H630        H  0.30898685  0.39558634  0.58135779     0.17100
H631        H  0.40899447  0.44306539  0.60413539     0.02900
H632        H  0.37833150  0.40601622  0.50085652     0.17400
H633        H  0.39026435  0.33591854  0.57581202     0.17200
O634        O  0.45545708  0.44012731  0.52814195    -0.76000
C635        C  0.53153054  0.43707998  0.43676014     0.85100
O636        O  0.55641115  0.50462778  0.56523732    -0.77100
O637        O  0.55483603  0.55001704  0.44346850    -0.78600
O638        O  0.42760683  0.54395996  0.45577956    -0.78400
O639        O  0.41761166  0.48383577  0.52339924    -0.77000
Zn640      Zn  0.50355474  0.45820611  0.51028824     1.55700
O641        O  0.46995494  0.53795199  0.41682116    -0.78400
Cd642      Cd  0.44866433  0.52440811  0.50285552     1.59700
Cd643      Cd  0.53043996  0.53747050  0.52856923     1.59600
O644        O  0.44599192  0.56593366  0.53775931    -0.78400
O645        O  0.49890971  0.50833955  0.49721485    -1.88900
Cd646      Cd  0.51209724  0.51583620  0.44644147     1.59900
O647        O  0.50040280  0.57589845  0.55507968    -0.78300
O648        O  0.52929348  0.46811547  0.42509107    -0.77000
C649        C  0.55789230  0.47162786  0.56964322     0.85500
C650        C  0.42481406  0.45262340  0.53218944     0.85200
O651        O  0.52167988  0.42949039  0.46763993    -0.75900
C652        C  0.43914778  0.54784227  0.42490132     0.86000
O653        O  0.53980672  0.45131461  0.55049328    -0.76000
C654        C  0.46787740  0.58325661  0.55564846     0.86100
C655        C  0.57407660  0.56599265  0.46537924     0.86500
O656        O  0.56862377  0.56351695  0.49812693    -0.78500
O657        O  0.48865840  0.69639954  0.73172859    -0.76000
C658        C  0.56215645  0.69502705  0.80894481     0.85100
O659        O  0.47126804  0.71762818  0.85737123    -0.77100
O660        O  0.55302429  0.80875168  0.80997596    -0.78600
O661        O  0.49308066  0.80855864  0.72316662    -0.78400
O662        O  0.45331470  0.73910060  0.71456768    -0.77000
Zn663      Zn  0.49166670  0.70708696  0.78101532     1.55700
O664        O  0.54695647  0.78660972  0.72598416    -0.78400
Cd665      Cd  0.46517798  0.77617392  0.75339925     1.59700
Cd666      Cd  0.48718624  0.76262066  0.83407351     1.59600
O667        O  0.43305144  0.81025835  0.78196787    -0.78400
O668        O  0.49699495  0.75433423  0.78576133    -1.88900
Cd669      Cd  0.54516159  0.76689849  0.77772041     1.59900
O670        O  0.45057440  0.79979379  0.83658988    -0.78300
O671        O  0.57441445  0.72443449  0.79912884    -0.77000
C672        C  0.45551505  0.69242425  0.84299856     0.85500
C673        C  0.47115025  0.71160689  0.70841058     0.85200
O674        O  0.53164882  0.68565958  0.80176003    -0.75900
C675        C  0.52359765  0.80561155  0.71133681     0.86000
O676        O  0.45386171  0.68876265  0.81024187    -0.76000
C677        C  0.43389065  0.81753697  0.81448720     0.86100
C678        C  0.54574662  0.81061644  0.84209795     0.86500
O679        O  0.52765216  0.78775689  0.85747278    -0.78500
O680        O  0.23062903  0.99848160  0.19141452    -0.76000
C681        C  0.30513888  0.07307882  0.18612790     0.85100
O682        O  0.35808951  0.98340247  0.20575961    -0.77100
O683        O  0.31383966  0.06557643  0.29950137    -0.78600
O684        O  0.22963482  0.00177731  0.30457265    -0.78400
O685        O  0.21673196  0.96288781  0.23485352    -0.77000
Zn686      Zn  0.28039880  0.00231062  0.19992725     1.55700
O687        O  0.22809293  0.05482780  0.28081431    -0.78400
Cd688      Cd  0.25816573  0.97495190  0.26984371     1.59700
Cd689      Cd  0.33752841  0.99965881  0.25236290     1.59600
O690        O  0.28996318  0.94325094  0.30187460    -0.78400
O691        O  0.28837272  0.00786609  0.24679094    -1.88900
Cd692      Cd  0.27922204  0.05573432  0.25964748     1.59900
O693        O  0.34325366  0.96345676  0.28980730    -0.78300
O694        O  0.29661478  0.08543387  0.21588750    -0.77000
C695        C  0.34238636  0.96738669  0.18140627     0.85500
C696        C  0.20859994  0.98027889  0.20750016     0.85200
O697        O  0.29855157  0.04233610  0.17749361    -0.75900
C698        C  0.21539275  0.03112953  0.30063203     0.86000
O699        O  0.30947198  0.96542590  0.17964765    -0.76000
C700        C  0.32271835  0.94547240  0.30805570     0.86100
C701        C  0.34636806  0.05957788  0.29947656     0.86500
O702        O  0.36092547  0.04129490  0.27613410    -0.78500
O703        O  0.17700505  0.81543783  0.96962826    -0.76000
C704        C  0.20339017  0.72182482  0.02924639     0.85100
O705        O  0.21406602  0.87200958  0.02832192    -0.77100
O706        O  0.30326761  0.79357406  0.06531138    -0.78600
O707        O  0.27590927  0.73651929  0.95257997    -0.78400
O708        O  0.21332383  0.80941295  0.92505325    -0.77000
Zn709      Zn  0.19994680  0.79519606  0.00907005     1.55700
O710        O  0.30256056  0.73753743  0.00426786    -0.78400
Cd711      Cd  0.25755688  0.78905379  0.95265248     1.59700
Cd712      Cd  0.25751809  0.84691412  0.00993100     1.59600
O713        O  0.29931479  0.82108421  0.94122284    -0.78400
O714        O  0.24710694  0.79878915  0.00110040    -1.88900
Cd715      Cd  0.26929815  0.76615814  0.03247294     1.59900
O716        O  0.28108779  0.86911862  0.96785312    -0.78300
O717        O  0.23281931  0.72664799  0.04424323    -0.77000
C718        C  0.18903004  0.85856220  0.04513440     0.85500
C719        C  0.18482000  0.82065573  0.93832344     0.85200
O720        O  0.18751475  0.74605362  0.01363600    -0.75900
C721        C  0.29645441  0.72312324  0.97541976     0.86000
O722        O  0.18447538  0.82596345  0.04708584    -0.76000
C723        C  0.30220330  0.85328944  0.94805140     0.86100
C724        C  0.31290412  0.82528751  0.06265723     0.86500
O725        O  0.29684718  0.84759170  0.04456990    -0.78500
C726        C  0.36991526  0.95999098  0.85446765     0.89000
C727        C  0.39654684  0.98050326  0.87615107    -0.51200
C728        C  0.41638948  0.95982725  0.89758249     0.11900
C729        C  0.40737972  0.92038530  0.89423695     0.22900
C730        C  0.39079291  0.93318442  0.83457880    -0.51900
C731        C  0.40942255  0.91149749  0.85500844     0.12000
C732        C  0.34892065  0.93943924  0.88089608    -0.51500
C733        C  0.36826383  0.91846590  0.90136325     0.12600
H734        H  0.39817325  0.00857925  0.87610232     0.17100
H735        H  0.42317007  0.90309315  0.91107033     0.02900
H736        H  0.38704118  0.92850979  0.80697931     0.17400
H737        H  0.32068394  0.93946903  0.88159981     0.17200
C738        C  0.63997796  0.87896428  0.94528777     0.89000
C739        C  0.65926477  0.89876196  0.91735116    -0.51200
C740        C  0.63860421  0.91741600  0.89598435     0.11900
C741        C  0.59966244  0.91679116  0.90640341     0.22900
C742        C  0.61971514  0.90647032  0.96612652    -0.51900
C743        C  0.59772937  0.92650591  0.94596437     0.12000
C744        C  0.61216555  0.85838721  0.92624958    -0.51500
C745        C  0.59136374  0.87791659  0.90575898     0.12600
H746        H  0.68668751  0.89458955  0.91201810     0.17100
H747        H  0.58264218  0.93242957  0.88915839     0.02900
H748        H  0.62123764  0.90861040  0.99415674     0.17400
H749        H  0.61069639  0.83022675  0.92683748     0.17200
C750        C  0.45267645  0.86845307  0.13022253     0.89000
C751        C  0.42875304  0.84595634  0.10833794    -0.51200
C752        C  0.40767614  0.86406766  0.08683781     0.11900
C753        C  0.41460266  0.90356172  0.08708326     0.22900
C754        C  0.47444808  0.88973236  0.10418293    -0.51900
C755        C  0.45436639  0.90891984  0.08145946     0.12000
C756        C  0.42908429  0.89499314  0.14760547    -0.51500
C757        C  0.40922266  0.91316266  0.12506978     0.12600
H758        H  0.42473927  0.81856647  0.11373366     0.17100
H759        H  0.39766452  0.91830931  0.06897827     0.02900
H760        H  0.50256770  0.89106414  0.10498351     0.17400
H761        H  0.42707498  0.89811934  0.17558248     0.17200
C762        C  0.35330486  0.13647972  0.04891919     0.89000
C763        C  0.37340584  0.10864613  0.02833717    -0.51200
C764        C  0.39466408  0.08838454  0.04890695     0.11900
C765        C  0.39235022  0.09788846  0.08823674     0.22900
C766        C  0.33325275  0.11698444  0.07663870    -0.51900
C767        C  0.35342226  0.09828809  0.09853519     0.12000
C768        C  0.38137431  0.15649282  0.06861969    -0.51500
C769        C  0.40151466  0.13621930  0.08912290     0.12600
H770        H  0.37317668  0.10709735  0.00022889     0.17100
H771        H  0.40887406  0.08160591  0.10538848     0.02900
H772        H  0.30607069  0.12237819  0.08209081     0.17400
H773        H  0.38366155  0.18458529  0.06819385     0.17200
C774        C  0.54714179  0.15377236  0.87098650     0.89000
C775        C  0.52463963  0.13136881  0.89528018    -0.51200
C776        C  0.54399602  0.11264060  0.91886574     0.11900
C777        C  0.58375665  0.11903860  0.91571275     0.22900
C778        C  0.56901312  0.17658152  0.89466768    -0.51900
C779        C  0.58963208  0.15873631  0.91690203     0.12000
C780        C  0.57257556  0.12831021  0.85458602    -0.51500
C781        C  0.59164143  0.11032263  0.87798413     0.12600
H782        H  0.49667671  0.12900256  0.89283102     0.17100
H783        H  0.59968439  0.10429094  0.93472327     0.02900
H784        H  0.57263258  0.20411023  0.88969955     0.17400
H785        H  0.57634266  0.12579872  0.82673521     0.17200
C786        C  0.63343540  0.05965814  0.13855371     0.89000
C787        C  0.61247731  0.08576834  0.15930768    -0.51200
C788        C  0.59325519  0.10769565  0.13973239     0.11900
C789        C  0.59436035  0.09930258  0.10036977     0.22900
C790        C  0.60676520  0.03899824  0.11698688    -0.51900
C791        C  0.58596451  0.05960982  0.09624617     0.12000
C792        C  0.65344961  0.08096160  0.11206000    -0.51500
C793        C  0.63325593  0.10193721  0.09242201     0.12600
H794        H  0.61674837  0.09000323  0.18691056     0.17100
H795        H  0.57804181  0.11679888  0.08427726     0.02900
H796        H  0.60539359  0.01091321  0.11710931     0.17400
H797        H  0.68166615  0.08161716  0.11091691     0.17200
O798        O  0.46983464  0.98573853  0.91817905    -0.76000
C799        C  0.52926993  0.08444241  0.94109939     0.85100
O800        O  0.56669764  0.95237062  0.99439093    -0.77100
O801        O  0.54043913  0.06599149  0.05359780    -0.78600
O802        O  0.41674273  0.03553147  0.02345474    -0.78400
O803        O  0.42775213  0.97594177  0.95656554    -0.77000
Zn804      Zn  0.51167615  0.00512890  0.94742396     1.55700
O805        O  0.45413780  0.07879973  0.03260768    -0.78400
Cd806      Cd  0.44860015  0.99472924  0.00378347     1.59700
Cd807      Cd  0.53135157  0.97996654  0.02749742     1.59600
O808        O  0.44639778  0.95364731  0.03934035    -0.78400
O809        O  0.49898356  0.00985782  0.99759987    -1.88900
Cd810      Cd  0.50275238  0.06025458  0.01378420     1.59900
O811        O  0.50097847  0.94300204  0.05601988    -0.78300
O812        O  0.52010301  0.09146549  0.97220407    -0.77000
C813        C  0.57112475  0.95117953  0.96133952     0.85500
C814        C  0.43936929  0.97457878  0.92553003     0.85200
O815        O  0.52731101  0.05353768  0.92892036    -0.75900
C816        C  0.42333891  0.06628237  0.03414958     0.86000
O817        O  0.55242174  0.96983559  0.94108631    -0.76000
C818        C  0.46829165  0.93640151  0.05741138     0.86100
C819        C  0.56063958  0.04508443  0.06971837     0.86500
O820        O  0.56014447  0.01238099  0.06302182    -0.78500
O821        O  0.98480816  0.82169181  0.26839014    -0.76000
C822        C  0.05894192  0.82522797  0.19268042     0.85100
O823        O  0.96650708  0.80234354  0.14140738    -0.77100
O824        O  0.05276504  0.71228155  0.18567920    -0.78600
O825        O  0.99131466  0.70937865  0.27452932    -0.78400
O826        O  0.95080408  0.77790104  0.28485245    -0.77000
Zn827      Zn  0.98805454  0.81185047  0.21861143     1.55700
O828        O  0.04506091  0.73137903  0.27172070    -0.78400
Cd829      Cd  0.96318439  0.74210184  0.24476832     1.59700
Cd830      Cd  0.98454640  0.75728536  0.16382272     1.59600
O831        O  0.93207482  0.70771448  0.21574631    -0.78400
O832        O  0.99452437  0.76472721  0.21250406    -1.88900
Cd833      Cd  0.04298049  0.75213902  0.22037149     1.59900
O834        O  0.94961419  0.71844554  0.16121404    -0.78300
O835        O  0.07167754  0.79585508  0.20196638    -0.77000
C836        C  0.95113010  0.82756139  0.15619885     0.85500
C837        C  0.96789195  0.80573420  0.29156160     0.85200
O838        O  0.02808004  0.83384030  0.19918185    -0.75900
C839        C  0.02179892  0.71250968  0.28646853     0.86000
O840        O  0.95032271  0.83099611  0.18902958    -0.76000
C841        C  0.93359366  0.70019458  0.18333273     0.86100
C842        C  0.04562353  0.71185646  0.15337238     0.86500
O843        O  0.02588592  0.73432223  0.13928281    -0.78500
O844        O  0.81032241  0.27959910  0.98761204    -0.76000
C845        C  0.81322558  0.20426147  0.06252862     0.85100
O846        O  0.78654645  0.15390061  0.96951871    -0.77100
O847        O  0.69942981  0.20218579  0.05600940    -0.78600
O848        O  0.69853483  0.28834942  0.99478151    -0.78400
O849        O  0.76665054  0.29654566  0.95328939    -0.77000
Zn850      Zn  0.79941661  0.23035221  0.99170837     1.55700
O851        O  0.72244801  0.28667361  0.04783712    -0.78400
Cd852      Cd  0.72992120  0.25796295  0.96648620     1.59700
Cd853      Cd  0.74274916  0.17770535  0.98840881     1.59600
O854        O  0.69386668  0.23048303  0.93584227    -0.78400
O855        O  0.75228999  0.22575959  0.99804606    -1.88900
Cd856      Cd  0.74096148  0.23464908  0.04644076     1.59900
O857        O  0.70243514  0.17616778  0.95488975    -0.78300
O858        O  0.78418771  0.21459107  0.07521639    -0.77000
C859        C  0.81217498  0.16808299  0.95429848     0.85500
C860        C  0.79487201  0.30270312  0.97003389     0.85200
O861        O  0.82175944  0.21024852  0.03155782    -0.75900
C862        C  0.70305150  0.30106607  0.02468826     0.86000
O863        O  0.81673506  0.20071036  0.95378386    -0.76000
C864        C  0.68490553  0.19855554  0.93833979     0.86100
C865        C  0.69809679  0.16989644  0.04927854     0.86500
O866        O  0.72079944  0.15474257  0.03075767    -0.78500
O867        O  0.26842846  0.02780531  0.68824210    -0.76000
C868        C  0.19045066  0.95285302  0.68664679     0.85100
O869        O  0.14143184  0.04584764  0.71136852    -0.77100
O870        O  0.19056388  0.96167901  0.80020285    -0.78600
O871        O  0.27640783  0.01980082  0.79989711    -0.78400
O872        O  0.28499324  0.06172517  0.73234170    -0.77000
Zn873      Zn  0.21850114  0.02353452  0.69808158     1.55700
O874        O  0.27428334  0.96721778  0.77537280    -0.78400
Cd875      Cd  0.24600101  0.04860191  0.76844759     1.59700
Cd876      Cd  0.16547473  0.02681800  0.75489212     1.59600
O877        O  0.21807143  0.07922481  0.80403499    -0.78400
O878        O  0.21372011  0.01772634  0.74535182    -1.88900
Cd879      Cd  0.22208374  0.96968152  0.75787377     1.59900
O880        O  0.16370507  0.06036617  0.79489051    -0.78300
O881        O  0.20019148  0.94083083  0.71616055    -0.77000
C882        C  0.15527026  0.06103755  0.68555345     0.85500
C883        C  0.29157138  0.04480803  0.70440815     0.85200
O884        O  0.19813700  0.98303673  0.67661687    -0.75900
C885        C  0.28900606  0.98990349  0.79492886     0.86000
O886        O  0.18789581  0.06108834  0.68026014    -0.76000
C887        C  0.18596628  0.07691701  0.81254572     0.86100
C888        C  0.15810286  0.96767565  0.80112386     0.86500
O889        O  0.14259599  0.98465232  0.77738775    -0.78500
C890        C  0.14442249  0.14366087  0.95187739     0.89000
C891        C  0.12306172  0.11853315  0.97459969    -0.51200
C892        C  0.10314341  0.09579918  0.95537640     0.11900
C893        C  0.10749895  0.10060288  0.91547454     0.22900
C894        C  0.16595649  0.12083149  0.92804969    -0.51900
C895        C  0.14694425  0.09937786  0.90775072     0.12000
C896        C  0.11770904  0.16112260  0.92847892    -0.51500
C897        C  0.09862183  0.13869399  0.90947044     0.12600
H898        H  0.12220162  0.11986894  0.00270092     0.17100
H899        H  0.09183906  0.08240005  0.89952989     0.02900
H900        H  0.19339059  0.12561203  0.92337386     0.17400
H901        H  0.11530172  0.18909450  0.92573813     0.17200
C902        C  0.12525775  0.96170401  0.14936800     0.89000
C903        C  0.09820745  0.98277374  0.12847478    -0.51200
C904        C  0.07964214  0.96288818  0.10511405     0.11900
C905        C  0.08990757  0.92370507  0.10617090     0.22900
C906        C  0.10504518  0.93285603  0.16682423    -0.51900
C907        C  0.08784420  0.91185173  0.14458945     0.12000
C908        C  0.14738981  0.94377370  0.12182516    -0.51500
C909        C  0.12893840  0.92392639  0.09950790     0.12600
H910        H  0.09577521  0.01074296  0.13011035     0.17100
H911        H  0.07507755  0.90705345  0.08790253     0.02900
H912        H  0.10841849  0.92643811  0.19412879     0.17400
H913        H  0.17559920  0.94490495  0.12134250     0.17200
C914        C  0.94933921  0.15727319  0.13085986     0.89000
C915        C  0.96964196  0.13750425  0.10257259    -0.51200
C916        C  0.94929741  0.11499584  0.08353750     0.11900
C917        C  0.91023166  0.11569779  0.09483334     0.22900
C918        C  0.91995348  0.17565686  0.11208355    -0.51900
C919        C  0.89855485  0.15425568  0.09431945     0.12000
C920        C  0.93190735  0.12907126  0.15239634    -0.51500
C921        C  0.91128704  0.10762458  0.13374701     0.12600
H922        H  0.99759903  0.13916434  0.09965289     0.17100
H923        H  0.89305132  0.09808716  0.07982888     0.02900
H924        H  0.91396434  0.20291385  0.11620784     0.17400
H925        H  0.93357916  0.12781462  0.18055155     0.17200
C926        C  0.85507152  0.88700734  0.04376257     0.89000
C927        C  0.83383505  0.90866298  0.06894567    -0.51200
C928        C  0.85318218  0.92744703  0.09145688     0.11900
C929        C  0.89267136  0.92542775  0.08428591     0.22900
C930        C  0.87778844  0.91286973  0.02357618    -0.51900
C931        C  0.89828605  0.93309932  0.04485372     0.12000
C932        C  0.88060690  0.86661623  0.06634269    -0.51500
C933        C  0.90003906  0.88670438  0.08756947     0.12600
H934        H  0.80617882  0.90442148  0.07277200     0.17100
H935        H  0.90848566  0.94166469  0.10209293     0.02900
H936        H  0.87895449  0.91375105  0.99546721     0.17400
H937        H  0.88183735  0.83845293  0.06695186     0.17200
C938        C  0.05185048  0.87572825  0.86647508     0.89000
C939        C  0.07916591  0.85484901  0.88587228    -0.51200
C940        C  0.10102202  0.87414545  0.90543582     0.11900
C941        C  0.09179596  0.91336556  0.90584097     0.22900
C942        C  0.03151716  0.89582309  0.89446770    -0.51900
C943        C  0.05225566  0.91638031  0.91531865     0.12000
C944        C  0.07189773  0.90341993  0.84687385    -0.51500
C945        C  0.09295937  0.92281529  0.86718825     0.12600
H946        H  0.08365729  0.82744644  0.88092964     0.17100
H947        H  0.10947320  0.92928353  0.92210868     0.02900
H948        H  0.00342651  0.89526400  0.89635699     0.17400
H949        H  0.07152636  0.90576844  0.81873717     0.17200
C950        C  0.87675192  0.06206438  0.85447719     0.89000
C951        C  0.89713898  0.08979786  0.83546648    -0.51200
C952        C  0.91454419  0.11178233  0.85655946     0.11900
C953        C  0.91243366  0.10200010  0.89549813     0.22900
C954        C  0.90352506  0.04191847  0.87638762    -0.51900
C955        C  0.92227767  0.06279338  0.89875102     0.12000
C956        C  0.85476266  0.08152551  0.88099794    -0.51500
C957        C  0.87339159  0.10239217  0.90216351     0.12600
H958        H  0.89366956  0.09487036  0.80789286     0.17100
H959        H  0.92729154  0.11961429  0.91280269     0.02900
H960        H  0.90589696  0.01390181  0.87579082     0.17400
H961        H  0.82654636  0.08051796  0.88165014     0.17200
O962        O  0.97560528  0.09459953  0.02998874    -0.76000
C963        C  0.07553176  0.07300699  0.97065013     0.85100
O964        O  0.94671246  0.01578965  0.93231263    -0.77100
O965        O  0.05860423  0.96004059  0.95984149    -0.78600
O966        O  0.02678754  0.98881942  0.08327023    -0.78400
O967        O  0.96678798  0.05630980  0.07240302    -0.77000
Zn968      Zn  0.99625730  0.06517445  0.98852308     1.55700
O969        O  0.07048099  0.98066627  0.04603296    -0.78400
Cd970      Cd  0.98584339  0.00903103  0.05173575     1.59700
Cd971      Cd  0.97251180  0.98429575  0.96959468     1.59600
O972        O  0.94415265  0.97393942  0.05396138    -0.78400
O973        O  0.00163280  0.01519622  0.00153686    -1.88900
Cd974      Cd  0.05234609  0.99989335  0.99742530     1.59900
O975        O  0.93414645  0.95743208  0.99930328    -0.78300
O976        O  0.08318071  0.04204422  0.97994520    -0.77000
C977        C  0.94531102  0.04860713  0.92715654     0.85500
C978        C  0.96468630  0.08725386  0.06058058     0.85200
O979        O  0.04436812  0.08457624  0.97282087    -0.75900
C980        C  0.05769414  0.97838889  0.07665863     0.86000
O981        O  0.96235536  0.06960998  0.94650784    -0.76000
C982        C  0.92683791  0.95632016  0.03179511     0.86100
C983        C  0.03768122  0.94267641  0.94072390     0.86500
O984        O  0.00478199  0.94817162  0.94207781    -0.78500
O985        O  0.31291005  0.24417597  0.01010400    -0.76000
C986        C  0.31416166  0.32306671  0.93683797     0.85100
O987        O  0.29249977  0.37068858  0.03141996    -0.77100
O988        O  0.20123431  0.32803114  0.94561424    -0.78600
O989        O  0.19979657  0.24016704  0.00588754    -0.78400
O990        O  0.26968275  0.22820880  0.04513244    -0.77000
Zn991      Zn  0.30283434  0.29411294  0.00691720     1.55700
O992        O  0.22151929  0.24222473  0.95202526    -0.78400
Cd993      Cd  0.23371040  0.26840964  0.03361899     1.59700
Cd994      Cd  0.24774236  0.34888723  0.01249263     1.59600
O995        O  0.20003514  0.29634894  0.06611639    -0.78400
O996        O  0.25556076  0.30062197  0.00187504    -1.88900
Cd997      Cd  0.24178033  0.29368899  0.95377305     1.59900
O998        O  0.20883893  0.35065835  0.04719629    -0.78300
O999        O  0.28445541  0.31391068  0.92469390    -0.77000
C1000       C  0.31791296  0.35538503  0.04607107     0.85500
C1001       C  0.29745070  0.22135789  0.02800260     0.85200
O1002       O  0.32407068  0.31505713  0.96700754    -0.75900
C1003       C  0.20276423  0.22786768  0.97563683     0.86000
O1004       O  0.32197498  0.32266445  0.04516302    -0.76000
C1005       C  0.19152408  0.32843228  0.06400295     0.86100
C1006       C  0.20125674  0.36028016  0.95274825     0.86500
O1007       O  0.22459999  0.37411103  0.97163596    -0.78500
O1008       O  0.72626648  0.49703751  0.68827562    -0.76000
C1009       C  0.80060803  0.57214871  0.68090557     0.85100
O1010       O  0.85371001  0.48103870  0.70310018    -0.77100
O1011       O  0.81434409  0.56703392  0.79393799    -0.78600
O1012       O  0.72561576  0.50441816  0.80182156    -0.78400
O1013       O  0.71192512  0.46353163  0.73316890    -0.77000
Zn1014     Zn  0.77601937  0.50159064  0.69638183     1.55700
O1015       O  0.72689578  0.55804685  0.77938587    -0.78400
Cd1016     Cd  0.75343371  0.47652755  0.76728000     1.59700
Cd1017     Cd  0.83344624  0.49859038  0.74893867     1.59600
O1018       O  0.78408075  0.44391081  0.79891254    -0.78400
O1019       O  0.78446619  0.50828465  0.74331240    -1.88900
Cd1020     Cd  0.77729966  0.55667943  0.75599826     1.59900
O1021       O  0.83779843  0.46318561  0.78720988    -0.78300
O1022       O  0.79340787  0.58492414  0.71084780    -0.77000
C1023       C  0.83809141  0.46579299  0.67830039     0.85500
C1024       C  0.70408971  0.47966136  0.70504026     0.85200
O1025       O  0.79330864  0.54141188  0.67277751    -0.75900
C1026       C  0.71319076  0.53470275  0.79899600     0.86000
O1027       O  0.80517769  0.46456983  0.67594751    -0.76000
C1028       C  0.81678426  0.44555028  0.80524390     0.86100
C1029       C  0.84666709  0.55990590  0.79297395     0.86500
O1030       O  0.85953538  0.53974701  0.77028348    -0.78500
O1031       O  0.97383216  0.18987563  0.79988669    -0.76000
C1032       C  0.03110447  0.22077928  0.70696529     0.85100
O1033       O  0.02978933  0.22004631  0.85679202    -0.77100
O1034       O  0.06909441  0.31513014  0.78642269    -0.78600
O1035       O  0.95601508  0.29151960  0.72642006    -0.78400
O1036       O  0.92906323  0.22632243  0.79596272    -0.77000
Zn1037     Zn  0.01269328  0.21338252  0.78001977     1.55700
O1038       O  0.00730895  0.31876655  0.72879398    -0.78400
Cd1039     Cd  0.95658795  0.27080743  0.77766328     1.59700
Cd1040     Cd  0.01328192  0.26636169  0.83567626     1.59600
O1041       O  0.94486306  0.31050733  0.81160535    -0.78400
O1042       O  0.00499464  0.26004134  0.78674179    -1.88900
Cd1043     Cd  0.03612070  0.28388374  0.75547587     1.59900
O1044       O  0.97131480  0.28974506  0.85886444    -0.78300
O1045       O  0.04700135  0.24937911  0.71349785    -0.77000
C1046       C  0.04725291  0.19643665  0.84160193     0.85500
C1047       C  0.94265355  0.19756981  0.80594113     0.85200
O1048       O  0.01555625  0.20387414  0.73038602    -0.75900
C1049       C  0.97838050  0.31305094  0.71414228     0.86000
O1050       O  0.05106045  0.19556229  0.80885082    -0.76000
C1051       C  0.95132721  0.31151670  0.84401639     0.86100
C1052       C  0.06757315  0.32146943  0.81913968     0.86500
O1053       O  0.04955108  0.30380169  0.84016633    -0.78500
C1054       C  0.85474766  0.38310291  0.94864691     0.89000
C1055       C  0.87732871  0.40927497  0.96867293    -0.51200
C1056       C  0.89998082  0.42736860  0.94771401     0.11900
C1057       C  0.89671858  0.41715480  0.90850858     0.22900
C1058       C  0.83624938  0.40390619  0.92072470    -0.51900
C1059       C  0.85782739  0.42069377  0.89882987     0.12000
C1060       C  0.88057115  0.36015322  0.92932154    -0.51500
C1061       C  0.90225166  0.37777421  0.90817191     0.12600
H1062       H  0.87634765  0.41230839  0.99663967     0.17100
H1063       H  0.91437797  0.43139565  0.89081332     0.02900
H1064       H  0.80855920  0.40140905  0.91564301     0.17400
H1065       H  0.88023629  0.33198312  0.93051130     0.17200
C1066       C  0.13210870  0.46498578  0.85713293     0.89000
C1067       C  0.11381663  0.43548610  0.83850578    -0.51200
C1068       C  0.09583730  0.41422107  0.85973448     0.11900
C1069       C  0.09621030  0.42558770  0.89829300     0.22900
C1070       C  0.10339879  0.48498478  0.87651550    -0.51900
C1071       C  0.08442958  0.46438085  0.89869015     0.12000
C1072       C  0.15364612  0.44776401  0.88558921    -0.51500
C1073       C  0.13514926  0.42681577  0.90676119     0.12600
H1074       H  0.11805264  0.42957854  0.81123811     0.17100
H1075       H  0.08122464  0.40832399  0.91576952     0.02900
H1076       H  0.09986497  0.51282411  0.87459380     0.17400
H1077       H  0.18181250  0.44945066  0.88688745     0.17200
C1078       C  0.94648945  0.65839198  0.87090771     0.89000
C1079       C  0.91475863  0.67294495  0.88893643    -0.51200
C1080       C  0.89381753  0.64875588  0.90309698     0.11900
C1081       C  0.90813558  0.61123539  0.90014660     0.22900
C1082       C  0.96624907  0.63757564  0.89895124    -0.51900
C1083       C  0.94636239  0.61213064  0.91439352     0.12000
C1084       C  0.93251065  0.63107411  0.84573355    -0.51500
C1085       C  0.91211592  0.60678778  0.86078720     0.12600
H1086       H  0.90721390  0.70007519  0.88694472     0.17100
H1087       H  0.89130664  0.59130911  0.91229169     0.02900
H1088       H  0.99364512  0.64111526  0.90449692     0.17400
H1089       H  0.93567348  0.63280438  0.81774921     0.17200
C1090       C  0.04808862  0.36446163  0.12304607     0.89000
C1091       C  0.02650625  0.38744483  0.09817389    -0.51200
C1092       C  0.04670054  0.40922707  0.07808208     0.11900
C1093       C  0.08642191  0.40463725  0.08503174     0.22900
C1094       C  0.07342163  0.34492400  0.10006198    -0.51900
C1095       C  0.09484724  0.36557532  0.08154715     0.12000
C1096       C  0.07019262  0.39004036  0.14377064    -0.51500
C1097       C  0.09023769  0.41078328  0.12394719     0.12600
H1098       H  0.99834937  0.38765225  0.09769314     0.17100
H1099       H  0.10337810  0.42147961  0.06900672     0.02900
H1100       H  0.07831969  0.31731213  0.10325835     0.17400
H1101       H  0.07139742  0.39040603  0.17197578     0.17200
C1102       C  0.87245832  0.55833208  0.14266871     0.89000
C1103       C  0.89764883  0.53702418  0.12005002    -0.51200
C1104       C  0.91862579  0.55736352  0.09936380     0.11900
C1105       C  0.91244853  0.59695618  0.10481041     0.22900
C1106       C  0.89511649  0.58285612  0.16369437    -0.51900
C1107       C  0.91478156  0.60438622  0.14420317     0.12000
C1108       C  0.85289459  0.58138696  0.11695083    -0.51500
C1109       C  0.87387267  0.60154945  0.09740814     0.12600
H1110       H  0.89745145  0.50892614  0.11898411     0.17100
H1111       H  0.92931976  0.61398859  0.08889322     0.02900
H1112       H  0.89102945  0.58714559  0.19129471     0.17400
H1113       H  0.82473232  0.58298416  0.11554788     0.17200
C1114       C  0.14206821  0.64118450  0.04885374     0.89000
C1115       C  0.15985225  0.62091967  0.07762323    -0.51200
C1116       C  0.13788026  0.60382870  0.09891140     0.11900
C1117       C  0.09916527  0.60659137  0.08774817     0.22900
C1118       C  0.12066845  0.61435273  0.02822298    -0.51900
C1119       C  0.09748182  0.59611920  0.04844122     0.12000
C1120       C  0.11512582  0.66374573  0.06707839    -0.51500
C1121       C  0.09302639  0.64589799  0.08764510     0.12600
H1122       H  0.18741161  0.62350065  0.08333772     0.17100
H1123       H  0.08103221  0.59214212  0.10478243     0.02900
H1124       H  0.12240912  0.61127250  0.00029891     0.17400
H1125       H  0.11525871  0.69192133  0.06597880     0.17200
O1126       O  0.03932284  0.58327346  0.02879699    -0.76000
C1127       C  0.96188669  0.58437386  0.93747209     0.85100
O1128       O  0.94224094  0.51066865  0.06465235    -0.77100
O1129       O  0.94570074  0.46916734  0.94036925    -0.78600
O1130       O  0.07086084  0.48156014  0.95662953    -0.78400
O1131       O  0.07892607  0.54127180  0.02441472    -0.77000
Zn1132     Zn  0.99239054  0.56236361  0.01049474     1.55700
O1133       O  0.02927025  0.48840854  0.91658204    -0.78400
Cd1134     Cd  0.04949968  0.49906976  0.00392393     1.59700
Cd1135     Cd  0.96871401  0.48072546  0.02657279     1.59600
O1136       O  0.05384904  0.45698298  0.03875290    -0.78400
O1137       O  0.99882262  0.51277819  0.99680263    -1.88900
Cd1138     Cd  0.98559985  0.50650012  0.94568764     1.59900
O1139       O  0.99960843  0.44285381  0.05290425    -0.78300
O1140       O  0.96536268  0.55367742  0.92522238    -0.77000
C1141       C  0.94111730  0.54336058  0.07063523     0.85500
C1142       C  0.07047180  0.57221458  0.03311407     0.85200
O1143       O  0.97171656  0.59157784  0.96856766    -0.75900
C1144       C  0.06006300  0.47900473  0.92529762     0.86000
O1145       O  0.95821710  0.56474213  0.05187297    -0.76000
C1146       C  0.03244250  0.43767358  0.05513924     0.86100
C1147       C  0.92724762  0.45173363  0.96171093     0.86500
O1148       O  0.93213028  0.45410783  0.99459855    -0.78500
O1149       O  0.47003442  0.68928057  0.30041963    -0.76000
C1150       C  0.53041872  0.71862432  0.20797041     0.85100
O1151       O  0.53326803  0.72005948  0.35755870    -0.77100
O1152       O  0.56834007  0.81491668  0.28476015    -0.78600
O1153       O  0.45527587  0.79170532  0.22831203    -0.78400
O1154       O  0.42739761  0.72833830  0.29848679    -0.77000
Zn1155     Zn  0.51016207  0.71129148  0.28071789     1.55700
O1156       O  0.50812178  0.81581645  0.22821806    -0.78400
Cd1157     Cd  0.45672249  0.77133368  0.27968972     1.59700
Cd1158     Cd  0.51507553  0.76554226  0.33614799     1.59600
O1159       O  0.44781945  0.81130069  0.31416261    -0.78400
O1160       O  0.50490359  0.75835201  0.28765969    -1.88900
Cd1161     Cd  0.53618404  0.78150944  0.25589514     1.59900
O1162       O  0.47332216  0.78771516  0.36057982    -0.78300
O1163       O  0.54732729  0.74652568  0.21484278    -0.77000
C1164       C  0.54777106  0.69465533  0.34217957     0.85500
C1165       C  0.43951932  0.69866233  0.30754330     0.85200
O1166       O  0.51343773  0.70239385  0.23090260    -0.75900
C1167       C  0.47843718  0.81156666  0.21480209     0.86000
O1168       O  0.54789919  0.69146441  0.30933909    -0.76000
C1169       C  0.45450743  0.81100045  0.34654758     0.86100
C1170       C  0.56618656  0.82286729  0.31701392     0.86500
O1171       O  0.54954184  0.80495614  0.33896141    -0.78500
O1172       O  0.49244763  0.32313669  0.77031217    -0.76000
C1173       C  0.56618794  0.32267861  0.69107335     0.85100
O1174       O  0.47674017  0.30740095  0.64384921    -0.77100
O1175       O  0.55435748  0.21042863  0.68972515    -0.78600
O1176       O  0.49258762  0.21093408  0.77432786    -0.78400
O1177       O  0.45386056  0.28205173  0.78374726    -0.77000
Zn1178     Zn  0.49644309  0.31358149  0.72084047     1.55700
O1179       O  0.54718759  0.23129743  0.77374089    -0.78400
Cd1180     Cd  0.46627779  0.24518658  0.74455743     1.59700
Cd1181     Cd  0.49146015  0.26072516  0.66514652     1.59600
O1182       O  0.43378369  0.21361014  0.71338085    -0.78400
O1183       O  0.49983306  0.26649412  0.71412767    -1.88900
Cd1184     Cd  0.54720284  0.25176735  0.72244971     1.59900
O1185       O  0.45373173  0.22501800  0.65988415    -0.78300
O1186       O  0.57749663  0.29273646  0.70040049    -0.77000
C1187       C  0.46094563  0.33195408  0.65932551     0.85500
C1188       C  0.47221072  0.30874926  0.79177693     0.85200
O1189       O  0.53684106  0.33391386  0.70013979    -0.75900
C1190       C  0.52285400  0.21275460  0.78716556     0.86000
O1191       O  0.45917995  0.33397079  0.69219983    -0.76000
C1192       C  0.43545943  0.20738179  0.68066113     0.86100
C1193       C  0.54880773  0.21061367  0.65719395     0.86500
O1194       O  0.53203892  0.23485627  0.64219626    -0.78500
O1195       O  0.70111004  0.97952297  0.82519594    -0.76000
C1196       C  0.79317478  0.04236933  0.79821396     0.85100
O1197       O  0.64472649  0.04432853  0.79780415    -0.77100
O1198       O  0.71436351  0.08312942  0.70348189    -0.78600
O1199       O  0.77209279  0.97003457  0.72080501    -0.78400
O1200       O  0.70159514  0.93921456  0.78377277    -0.77000
Zn1201     Zn  0.72134845  0.02020001  0.80486845     1.55700
O1202       O  0.77367520  0.02493110  0.70168226    -0.78400
Cd1203     Cd  0.72124678  0.97034036  0.74231110     1.59700
Cd1204     Cd  0.66484728  0.02703104  0.75155033     1.59600
O1205       O  0.68654798  0.96337936  0.70217632    -0.78400
O1206       O  0.71359490  0.01757801  0.75768585    -1.88900
Cd1207     Cd  0.74445600  0.05085735  0.73622231     1.59900
O1208       O  0.64018855  0.98573207  0.72851513    -0.78300
O1209       O  0.78493716  0.06164280  0.77220893    -0.77000
C1210       C  0.66067826  0.05794997  0.82341935     0.85500
C1211       C  0.69280613  0.94994770  0.81405634     0.85200
O1212       O  0.77132002  0.02291656  0.81310120    -0.75900
C1213       C  0.78588429  0.99449084  0.70274657     0.86000
O1214       O  0.69354872  0.05732216  0.82650837    -0.76000
C1215       C  0.65399299  0.96877537  0.70376673     0.86100
C1216       C  0.68202341  0.08040659  0.69570430     0.86500
O1217       O  0.66082207  0.06239172  0.71313763    -0.78500
C1218       C  0.37369449  0.06307931  0.64641812     0.89000
C1219       C  0.40079580  0.04256834  0.62547717    -0.51200
C1220       C  0.41838504  0.06264037  0.60175405     0.11900
C1221       C  0.40701942  0.10168651  0.60242737     0.22900
C1222       C  0.39349180  0.09254285  0.66344043    -0.51900
C1223       C  0.40995462  0.11362744  0.64081400     0.12000
C1224       C  0.35046336  0.08024867  0.61920675    -0.51500
C1225       C  0.36759158  0.10076424  0.59656898     0.12600
H1226       H  0.40438272  0.01476286  0.62776477     0.17100
H1227       H  0.42103106  0.11855390  0.58379905     0.02900
H1228       H  0.39075465  0.09893313  0.69080001     0.17400
H1229       H  0.32226629  0.07865531  0.61963674     0.17200
C1230       C  0.55303694  0.86963584  0.63354028     0.89000
C1231       C  0.53322739  0.88894364  0.60440257    -0.51200
C1232       C  0.55370046  0.91174933  0.58588717     0.11900
C1233       C  0.59244494  0.91171770  0.59852496     0.22900
C1234       C  0.58327419  0.85171644  0.61590484    -0.51900
C1235       C  0.60469403  0.87328118  0.59855694     0.12000
C1236       C  0.56926609  0.89825870  0.65547038    -0.51500
C1237       C  0.59003780  0.91999843  0.63741063     0.12600
H1238       H  0.50539614  0.88680303  0.60058036     0.17100
H1239       H  0.60979993  0.92954408  0.58407680     0.02900
H1240       H  0.58934162  0.82445078  0.61991236     0.17400
H1241       H  0.56673352  0.89959771  0.68354481     0.17200
C1242       C  0.64350829  0.14300307  0.55207096     0.89000
C1243       C  0.66300093  0.12198657  0.57921960    -0.51200
C1244       C  0.64223746  0.10357787  0.60065678     0.11900
C1245       C  0.60317261  0.10579869  0.59104960     0.22900
C1246       C  0.62185949  0.11661559  0.53113296    -0.51900
C1247       C  0.60000908  0.09689842  0.55149314     0.12000
C1248       C  0.61686522  0.16408931  0.57220569    -0.51500
C1249       C  0.59598672  0.14482531  0.59266394     0.12600
H1250       H  0.69053399  0.12565255  0.58440887     0.17100
H1251       H  0.58615258  0.09028623  0.60829555     0.02900
H1252       H  0.62264054  0.11477872  0.50305665     0.17400
H1253       H  0.61597710  0.19227995  0.57199217     0.17200
C1254       C  0.35846689  0.88095982  0.45083594     0.89000
C1255       C  0.38002263  0.90698960  0.47241485    -0.51200
C1256       C  0.40352467  0.92551948  0.45281333     0.11900
C1257       C  0.40201986  0.91607423  0.41331157     0.22900
C1258       C  0.34108412  0.90229605  0.42261797    -0.51900
C1259       C  0.36344269  0.91968396  0.40198966     0.12000
C1260       C  0.38523999  0.85861524  0.43221886    -0.51500
C1261       C  0.40771178  0.87674629  0.41241217     0.12600
H1262       H  0.37797061  0.90949743  0.50037222     0.17100
H1263       H  0.42043096  0.93081288  0.39682865     0.02900
H1264       H  0.31361889  0.89985051  0.41639563     0.17400
H1265       H  0.38481361  0.83041573  0.43255515     0.17200
C1266       C  0.62738061  0.96529792  0.35534704     0.89000
C1267       C  0.60428093  0.94060794  0.33497668    -0.51200
C1268       C  0.58501838  0.91921081  0.35500751     0.11900
C1269       C  0.58804697  0.92701781  0.39426293     0.22900
C1270       C  0.60258149  0.98683302  0.37834263    -0.51900
C1271       C  0.58193196  0.96662062  0.39956916     0.12000
C1272       C  0.64736323  0.94245352  0.38092416    -0.51500
C1273       C  0.62671288  0.92252563  0.40101876     0.12600
H1274       H  0.60787878  0.93604071  0.30735083     0.17100
H1275       H  0.57149236  0.91008060  0.41060841     0.02900
H1276       H  0.60276842  0.01493621  0.37918857     0.17400
H1277       H  0.67554403  0.94083973  0.38188141     0.17200
C1278       C  0.45134944  0.15387466  0.37272220     0.89000
C1279       C  0.42319919  0.17203838  0.39334438    -0.51200
C1280       C  0.40138662  0.15030112  0.41000202     0.11900
C1281       C  0.41142122  0.11152509  0.40655074     0.22900
C1282       C  0.47148888  0.13156754  0.39904775    -0.51900
C1283       C  0.45069679  0.10872024  0.41706525     0.12000
C1284       C  0.43234772  0.12790945  0.34962571    -0.51500
C1285       C  0.41128375  0.10602521  0.36709057     0.12600
H1286       H  0.41796256  0.19965548  0.39086086     0.17100
H1287       H  0.39382302  0.09370087  0.42070260     0.02900
H1288       H  0.49943983  0.13293301  0.40230227     0.17400
H1289       H  0.43354709  0.12840026  0.32142809     0.17200
O1290       O  0.52942850  0.93208471  0.53109685    -0.76000
C1291       C  0.43016953  0.94962439  0.46842363     0.85100
O1292       O  0.55808219  0.01325673  0.43446931    -0.77100
O1293       O  0.44398447  0.06284327  0.45885111    -0.78600
O1294       O  0.47242528  0.03710503  0.58283754    -0.78400
O1295       O  0.53434289  0.96996236  0.57465187    -0.77000
Zn1296     Zn  0.50860817  0.96106566  0.48902547     1.55700
O1297       O  0.43002694  0.04369981  0.54362383    -0.78400
Cd1298     Cd  0.51508054  0.01722925  0.55356526     1.59700
Cd1299     Cd  0.53084947  0.04285938  0.47248490     1.59600
O1300       O  0.55550056  0.05388794  0.55821077    -0.78400
O1301       O  0.50137826  0.01056181  0.50267313    -1.88900
Cd1302     Cd  0.45016613  0.02342518  0.49650391     1.59900
O1303       O  0.56712276  0.07104299  0.50415928    -0.78300
O1304       O  0.42099381  0.97995140  0.47847090    -0.77000
C1305       C  0.55956238  0.98056959  0.42852816     0.85500
C1306       C  0.53839970  0.93931954  0.56244139     0.85200
O1307       O  0.46184999  0.93959577  0.47099876    -0.75900
C1308       C  0.44169541  0.04708039  0.57461503     0.86000
O1309       O  0.54276319  0.95907592  0.44746176    -0.76000
C1310       C  0.57297230  0.07242222  0.53700238     0.86100
C1311       C  0.46505403  0.08194812  0.44183690     0.86500
O1312       O  0.49804205  0.07821724  0.44507050    -0.78500
C1313       C  0.66866444  0.09363183  0.66350936    -0.10700
C1314       C  0.65516787  0.09742884  0.63540243    -0.12300
C1315       C  0.61338526  0.94213157  0.65596716    -0.10700
C1316       C  0.63227965  0.95546027  0.67686479    -0.12300
C1317       C  0.42081233  0.17643527  0.66614795    -0.10700
C1318       C  0.41629767  0.14874576  0.65220187    -0.12300
C1319       C  0.56180898  0.18275224  0.63675779    -0.10700
C1320       C  0.57469732  0.16185422  0.61771010    -0.12300
C1321       C  0.58030819  0.88446189  0.34181761    -0.10700
C1322       C  0.57798314  0.85589184  0.32924561    -0.12300
C1323       C  0.44090505  0.83790007  0.36796372    -0.10700
C1324       C  0.42838127  0.85861059  0.38751911    -0.12300
C1325       C  0.08255847  0.35234179  0.83338029    -0.10700
C1326       C  0.08807168  0.37980916  0.84732776    -0.12300
C1327       C  0.92284404  0.35912252  0.88352287    -0.10700
C1328       C  0.93615563  0.33832204  0.86455138    -0.12300
C1329       C  0.83098546  0.43141597  0.83654247    -0.10700
C1330       C  0.84504237  0.42702468  0.86420337    -0.12300
C1331       C  0.86934474  0.57423887  0.81868397    -0.10700
C1332       C  0.88894983  0.58671745  0.83956378    -0.12300
C1333       C  0.12981408  0.35280731  0.07754791    -0.10700
C1334       C  0.15841130  0.34019990  0.07579829    -0.12300
C1335       C  0.17407317  0.38179998  0.93951504    -0.10700
C1336       C  0.15331989  0.40161424  0.92724476    -0.12300
C1337       C  0.91988708  0.14648375  0.84342813    -0.10700
C1338       C  0.92473259  0.17250006  0.82665120    -0.12300
C1339       C  0.85341748  0.04450548  0.83022133    -0.10700
C1340       C  0.82762800  0.04234892  0.81251157    -0.12300
C1341       C  0.07685046  0.15158968  0.88258036    -0.10700
C1342       C  0.06261242  0.17010547  0.86217824    -0.12300
C1343       C  0.16634313  0.17064526  0.96708341    -0.10700
C1344       C  0.18409439  0.19628422  0.96970730    -0.12300
C1345       C  0.32583412  0.04435416  0.68984284    -0.10700
C1346       C  0.35143117  0.04616866  0.67196490    -0.12300
C1347       C  0.16086461  0.09250413  0.87370022    -0.10700
C1348       C  0.17402037  0.08903229  0.84552956    -0.12300
C1349       C  0.11902369  0.94338919  0.85089984    -0.10700
C1350       C  0.13834112  0.95535799  0.82973551    -0.12300
C1351       C  0.82980583  0.36094936  0.96654007    -0.10700
C1352       C  0.81091586  0.33621398  0.96935425    -0.12300
C1353       C  0.83778279  0.18342147  0.08135453    -0.10700
C1354       C  0.86374864  0.16677522  0.08743276    -0.12300
C1355       C  0.85615233  0.12682287  0.92369293    -0.10700
C1356       C  0.83700379  0.14647722  0.93803289    -0.12300
C1357       C  0.08246686  0.87656489  0.15614023    -0.10700
C1358       C  0.07743028  0.85013825  0.17224188    -0.12300
C1359       C  0.91952629  0.63890613  0.15790051    -0.10700
C1360       C  0.92182041  0.66726550  0.17091410    -0.12300
C1361       C  0.92062141  0.87128740  0.11425080    -0.10700
C1362       C  0.93477727  0.85288109  0.13491859    -0.12300
C1363       C  0.05977735  0.68505690  0.13205175    -0.10700
C1364       C  0.07250022  0.66440337  0.11249525    -0.12300
C1365       C  0.67004969  0.14973009  0.06229765    -0.10700
C1366       C  0.64943658  0.12940542  0.07359490    -0.12300
C1367       C  0.61953992  0.08908575  0.86663868    -0.10700
C1368       C  0.64055314  0.07431286  0.84937838    -0.12300
C1369       C  0.65157455  0.18701533  0.92653716    -0.10700
C1370       C  0.62334096  0.17379627  0.92344503    -0.12300
C1371       C  0.53146960  0.17475178  0.84347860    -0.10700
C1372       C  0.52826764  0.19288793  0.81816170    -0.12300
C1373       C  0.33026465  0.16138297  0.03155005    -0.10700
C1374       C  0.31284069  0.18732440  0.02869410    -0.12300
C1375       C  0.46906316  0.84743101  0.15725632    -0.10700
C1376       C  0.47250618  0.83000050  0.18303502    -0.12300
C1377       C  0.65227493  0.92477860  0.86176861    -0.10700
C1378       C  0.67030475  0.93094482  0.83682606    -0.12300
C1379       C  0.34581931  0.97770098  0.83107881    -0.10700
C1380       C  0.32086290  0.98274748  0.81281243    -0.12300
C1381       C  0.18662764  0.68848543  0.02950546    -0.10700
C1382       C  0.16746749  0.66378881  0.03183872    -0.12300
C1383       C  0.37382460  0.84945953  0.08024599    -0.10700
C1384       C  0.34559253  0.83655189  0.07622830    -0.12300
C1385       C  0.16013838  0.84173737  0.91973455    -0.10700
C1386       C  0.13477365  0.85927464  0.91334344    -0.12300
C1387       C  0.33027872  0.87263710  0.93358333    -0.10700
C1388       C  0.35117854  0.89210859  0.92117416    -0.12300
C1389       C  0.14628800  0.90045224  0.07690105    -0.10700
C1390       C  0.16499973  0.88088361  0.06179688    -0.12300
C1391       C  0.17408889  0.97975429  0.19302274    -0.10700
C1392       C  0.14855035  0.97799225  0.17476142    -0.12300
C1393       C  0.32497992  0.09154943  0.16070253    -0.10700
C1394       C  0.34082011  0.09517461  0.13384884    -0.12300
C1395       C  0.35164127  0.92692998  0.36706123    -0.10700
C1396       C  0.33753147  0.93157719  0.33936748    -0.12300
C1397       C  0.38276054  0.93555385  0.13769977    -0.10700
C1398       C  0.36266022  0.95097619  0.15552086    -0.12300
C1399       C  0.38648758  0.08578737  0.34810126    -0.10700
C1400       C  0.36733362  0.07332526  0.32684017    -0.12300
C1401       C  0.53067693  0.82528954  0.68045941    -0.10700
C1402       C  0.53552549  0.84485036  0.65644277    -0.12300
C1403       C  0.41597631  0.87723835  0.84138852    -0.10700
C1404       C  0.42011799  0.84953309  0.82740084    -0.12300
C1405       C  0.55805909  0.83936782  0.86169291    -0.10700
C1406       C  0.57023802  0.86085612  0.88056236    -0.12300
C1407       C  0.44438083  0.35757743  0.63884280    -0.10700
C1408       C  0.42832972  0.37486624  0.61873167    -0.12300
C1409       C  0.41414408  0.64897790  0.34560453    -0.10700
C1410       C  0.42068384  0.67450911  0.32862228    -0.12300
C1411       C  0.47120415  0.67876988  0.64871321    -0.10700
C1412       C  0.47226159  0.69640541  0.67450821    -0.12300
C1413       C  0.58779710  0.37012396  0.64866618    -0.10700
C1414       C  0.58393247  0.34489787  0.66700050    -0.12300
C1415       C  0.66985263  0.47833691  0.69022703    -0.10700
C1416       C  0.64542282  0.47543127  0.67073815    -0.12300
C1417       C  0.57844984  0.65000473  0.38276962    -0.10700
C1418       C  0.56395467  0.66877653  0.36275443    -0.12300
C1419       C  0.18020629  0.48714307  0.81449353    -0.10700
C1420       C  0.15547367  0.48257530  0.83306484    -0.12300
C1421       C  0.32313154  0.43716746  0.65643740    -0.10700
C1422       C  0.33983069  0.43117180  0.63055835    -0.12300
C1423       C  0.36348561  0.57660593  0.65743900    -0.10700
C1424       C  0.38392903  0.59046184  0.63873771    -0.12300
C1425       C  0.34265290  0.37599476  0.06382045    -0.10700
C1426       C  0.36049378  0.39589950  0.07951626    -0.12300
C1427       C  0.58639920  0.64526551  0.84792597    -0.10700
C1428       C  0.58072015  0.67096192  0.83069109    -0.12300
C1429       C  0.65746306  0.54530265  0.83769944    -0.10700
C1430       C  0.68227363  0.54125010  0.81890836    -0.12300
C1431       C  0.43937785  0.66768132  0.86467379    -0.10700
C1432       C  0.42459576  0.65038860  0.88559972    -0.12300
C1433       C  0.34297422  0.59230203  0.87089974    -0.10700
C1434       C  0.33045568  0.59014830  0.84229708    -0.12300
C1435       C  0.33183464  0.66499527  0.96755231    -0.10700
C1436       C  0.31389318  0.69059988  0.97009487    -0.12300
C1437       C  0.36343617  0.36255933  0.91327328    -0.10700
C1438       C  0.33778548  0.34527529  0.91858462    -0.12300
C1439       C  0.38475990  0.43767104  0.84531513    -0.10700
C1440       C  0.36498733  0.44964958  0.82419718    -0.12300
C1441       C  0.46679101  0.34390867  0.84980157    -0.10700
C1442       C  0.47010881  0.32463468  0.82537511    -0.12300
C1443       C  0.53192198  0.68566750  0.14831818    -0.10700
C1444       C  0.53014525  0.70379026  0.17379065    -0.12300
C1445       C  0.66543026  0.35701181  0.03504482    -0.10700
C1446       C  0.68466456  0.33266276  0.03115373    -0.12300
C1447       C  0.02880994  0.69361507  0.31787216    -0.10700
C1448       C  0.03355482  0.67529687  0.34288625    -0.12300
C1449       C  0.85871048  0.44979611  0.65249875    -0.10700
C1450       C  0.88015336  0.43561751  0.63525795    -0.12300
C1451       C  0.96782040  0.34912244  0.65676134    -0.10700
C1452       C  0.97217887  0.33173993  0.68248214    -0.12300
C1453       C  0.83672545  0.59408310  0.62852597    -0.10700
C1454       C  0.82022670  0.59007337  0.65491628    -0.12300
C1455       C  0.14633509  0.55061424  0.67461327    -0.10700
C1456       C  0.17241497  0.54904397  0.69204534    -0.12300
C1457       C  0.96299869  0.68628656  0.85096004    -0.10700
C1458       C  0.96482091  0.70652226  0.82703080    -0.12300
C1459       C  0.02840311  0.83537842  0.81636487    -0.10700
C1460       C  0.03396289  0.85347280  0.84134345    -0.12300
C1461       C  0.07372529  0.67765387  0.67191552    -0.10700
C1462       C  0.07875329  0.65120793  0.65589272    -0.12300
C1463       C  0.93307013  0.67111804  0.63951995    -0.10700
C1464       C  0.91961125  0.65228697  0.61888851    -0.12300
C1465       C  0.66716922  0.16707170  0.53483985    -0.10700
C1466       C  0.68528208  0.19214562  0.53025650    -0.12300
C1467       C  0.66005092  0.34419444  0.42092342    -0.10700
C1468       C  0.63229468  0.35790865  0.41618989    -0.12300
C1469       C  0.87091099  0.34926669  0.58157541    -0.10700
C1470       C  0.84451140  0.33299753  0.57688422    -0.12300
C1471       C  0.67670906  0.37773143  0.56254244    -0.10700
C1472       C  0.65512351  0.39669374  0.57467509    -0.12300
C1473       C  0.86334394  0.39212582  0.42419350    -0.10700
C1474       C  0.84523409  0.37147693  0.43841315    -0.12300
C1475       C  0.15015828  0.92744289  0.63857183    -0.10700
C1476       C  0.16790448  0.93423654  0.66357251    -0.12300
C1477       C  0.05596459  0.83988973  0.62929976    -0.10700
C1478       C  0.07027390  0.86014806  0.61047037    -0.12300
C1479       C  0.13303329  0.07799958  0.66161156    -0.10700
C1480       C  0.11222778  0.09255611  0.64375439    -0.12300
C1481       C  0.03093274  0.18732066  0.64736372    -0.10700
C1482       C  0.03010863  0.20593289  0.67264966    -0.12300
C1483       C  0.15794211  0.04004659  0.33688911    -0.10700
C1484       C  0.18365644  0.03627870  0.31942514    -0.12300
C1485       C  0.91145809  0.88526131  0.65469366    -0.10700
C1486       C  0.91550485  0.85784854  0.66934022    -0.12300
C1487       C  0.84053763  0.98493048  0.66285179    -0.10700
C1488       C  0.81635572  0.98889134  0.68225929    -0.12300
C1489       C  0.82764734  0.15976745  0.46096726    -0.10700
C1490       C  0.80782712  0.18385922  0.46379664    -0.12300
C1491       C  0.96813384  0.83826050  0.35176484    -0.10700
C1492       C  0.96885399  0.82049080  0.32589658    -0.12300
C1493       C  0.68567486  0.68698804  0.47055710    -0.07500
C1494       C  0.66839480  0.66091266  0.46871595    -0.12300
C1495       C  0.81492761  0.69162812  0.52674848    -0.10700
C1496       C  0.83277601  0.66613937  0.53047494    -0.12300
C1497       C  0.66411562  0.84269088  0.58329716    -0.10700
C1498       C  0.63906077  0.86034739  0.59032517    -0.12300
C1499       C  0.84090799  0.84003785  0.42346680    -0.10700
C1500       C  0.86933560  0.85294568  0.42104974    -0.12300
C1501       C  0.82684727  0.87772139  0.56161211    -0.10700
C1502       C  0.84696639  0.89819901  0.57380961    -0.12300
C1503       C  0.65834679  0.87548194  0.43765061    -0.10700
C1504       C  0.64111604  0.89621456  0.42241461    -0.12300
C1505       C  0.65248084  0.98155967  0.33188595    -0.10700
C1506       C  0.67791234  0.98270512  0.31358441    -0.12300
C1507       C  0.68308882  0.03822954  0.18031729    -0.10700
C1508       C  0.65833973  0.04234389  0.16147495    -0.12300
C1509       C  0.85090478  0.09723824  0.35823155    -0.10700
C1510       C  0.83387332  0.09143504  0.33250686    -0.12300
C1511       C  0.83922465  0.93088851  0.12605321    -0.10700
C1512       C  0.82648741  0.93257673  0.15458883    -0.12300
C1513       C  0.88672640  0.93241229  0.35797947    -0.10700
C1514       C  0.86709607  0.94720448  0.33904351    -0.12300
C1515       C  0.88708781  0.08582326  0.15142375    -0.10700
C1516       C  0.86781331  0.07196717  0.17149409    -0.12300
C1517       C  0.03207437  0.32217781  0.17334619    -0.10700
C1518       C  0.03216770  0.34029445  0.14770413    -0.12300
C1519       C  0.96677038  0.18150313  0.15439122    -0.10700
C1520       C  0.97163931  0.19972387  0.17940800    -0.12300
C1521       C  0.07950963  0.16493684  0.32441027    -0.10700
C1522       C  0.08277913  0.13676513  0.33767161    -0.12300
C1523       C  0.92722455  0.35689069  0.32307514    -0.10700
C1524       C  0.92145981  0.38309673  0.33921500    -0.12300
C1525       C  0.92459198  0.16674213  0.38269939    -0.10700
C1526       C  0.93757279  0.18779184  0.36370221    -0.12300
C1527       C  0.06885204  0.34940823  0.36824047    -0.10700
C1528       C  0.08250581  0.36805335  0.38899626    -0.12300
C1529       C  0.84713624  0.54151616  0.16537011    -0.10700
C1530       C  0.82153610  0.53921466  0.18323216    -0.12300
C1531       C  0.81840333  0.48063294  0.31711408    -0.10700
C1532       C  0.84378845  0.47754477  0.33547465    -0.12300
C1533       C  0.65018874  0.42145595  0.13784438    -0.10700
C1534       C  0.66757723  0.42629993  0.16359889    -0.12300
C1535       C  0.67341873  0.58634773  0.34181474    -0.10700
C1536       C  0.66066526  0.58935395  0.37020723    -0.12300
C1537       C  0.61423290  0.59120054  0.14245905    -0.10700
C1538       C  0.63316293  0.57425047  0.16038974    -0.12300
C1539       C  0.63330733  0.44693031  0.32733492    -0.10700
C1540       C  0.61373296  0.43449618  0.34809828    -0.12300
C1541       C  0.31954702  0.32751436  0.53175543    -0.10700
C1542       C  0.33704926  0.35316761  0.53564858    -0.12300
C1543       C  0.19484228  0.33982327  0.47213564    -0.10700
C1544       C  0.17652073  0.36533565  0.47117599    -0.12300
C1545       C  0.33933766  0.17760521  0.42062542    -0.10700
C1546       C  0.36672979  0.16302998  0.41628905    -0.12300
C1547       C  0.13170088  0.17051378  0.58174004    -0.10700
C1548       C  0.15858684  0.18626548  0.57812001    -0.12300
C1549       C  0.32677881  0.14431645  0.56370759    -0.10700
C1550       C  0.34813470  0.12520661  0.57619520    -0.12300
C1551       C  0.15734354  0.14903115  0.43824856    -0.10700
C1552       C  0.13975813  0.12815022  0.42345131    -0.12300
C1553       C  0.47167406  0.19764241  0.32573692    -0.10700
C1554       C  0.46908641  0.17898750  0.35067789    -0.12300
C1555       C  0.53109797  0.32113959  0.32018883    -0.10700
C1556       C  0.53370580  0.33982550  0.34519917    -0.12300
C1557       C  0.58691866  0.14174396  0.15435804    -0.10700
C1558       C  0.58163395  0.16733892  0.17175843    -0.12300
C1559       C  0.42195251  0.37881945  0.16002448    -0.10700
C1560       C  0.42490704  0.35021231  0.17227890    -0.12300
C1561       C  0.57248211  0.35797753  0.11673059    -0.10700
C1562       C  0.56167982  0.33645077  0.13639310    -0.12300
C1563       C  0.43923176  0.16837846  0.13497170    -0.10700
C1564       C  0.42384462  0.15119210  0.11433621    -0.12300
C1565       C  0.31868303  0.54433720  0.31322441    -0.10700
C1566       C  0.34372199  0.54866932  0.33164895    -0.12300
C1567       C  0.32584616  0.48043415  0.19071723    -0.10700
C1568       C  0.35178193  0.47804594  0.17338696    -0.12300
C1569       C  0.15071430  0.59560459  0.13336094    -0.10700
C1570       C  0.16796856  0.58905486  0.15888178    -0.12300
C1571       C  0.15884760  0.43322647  0.37174955    -0.10700
C1572       C  0.17172719  0.43565563  0.34337181    -0.12300
C1573       C  0.13553085  0.57088662  0.32823923    -0.10700
C1574       C  0.11680293  0.58331141  0.34978621    -0.12300
C1575       C  0.13646580  0.44625094  0.15836613    -0.10700
C1576       C  0.11632632  0.43176437  0.13967357    -0.12300
C1577       C  0.81507576  0.83659225  0.02339870    -0.10700
C1578       C  0.83257507  0.86237694  0.02578414    -0.12300
C1579       C  0.68306241  0.83024277  0.96631584    -0.10700
C1580       C  0.66387569  0.85468637  0.96219230    -0.12300
C1581       C  0.65913530  0.68670132  0.07615713    -0.10700
C1582       C  0.63106077  0.67312306  0.07894252    -0.12300
C1583       C  0.83264230  0.67635076  0.91475850    -0.10700
C1584       C  0.85815383  0.65898256  0.90894834    -0.12300
C1585       C  0.64899291  0.62749052  0.93045717    -0.10700
C1586       C  0.66988958  0.64689899  0.94275327    -0.12300
C1587       C  0.84246211  0.64900558  0.06099937    -0.10700
C1588       C  0.85974135  0.62819056  0.07614234    -0.12300
C1589       C  0.33290950  0.85796510  0.46686927    -0.10700
C1590       C  0.31375471  0.83342649  0.47015884    -0.12300
C1591       C  0.16958738  0.86345761  0.53471695    -0.10700
C1592       C  0.18864470  0.83864447  0.53226748    -0.12300
C1593       C  0.15935652  0.68393340  0.42176553    -0.10700
C1594       C  0.13410778  0.66645962  0.41498006    -0.12300
C1595       C  0.34529497  0.68543063  0.57488762    -0.10700
C1596       C  0.37331142  0.67157393  0.57720378    -0.12300
C1597       C  0.14256488  0.62870765  0.57792966    -0.10700
C1598       C  0.16158037  0.64851682  0.56366585    -0.12300
C1599       C  0.34879929  0.62994009  0.42513363    -0.10700
C1600       C  0.32774723  0.64960874  0.43706003    -0.12300
loop_ 
_geom_bond_atom_site_label_1 
_geom_bond_atom_site_label_2 
_geom_bond_distance 
_geom_bond_site_symmetry_2 
_ccdc_geom_bond_type 
O1           C17   1.268       .  A
O1           Zn7   1.964       .  S
C2           O18   1.262       .  A
C2           O15   1.287       .  A
C2         C1593   1.440       .  S
O3           C16   1.274       .  A
O3          Cd10   2.053       .  S
O4           C22   1.275       .  A
O4          Cd13   2.077       .  S
O5           C19   1.266       .  A
O5           Cd9   2.010       .  S
O6           C17   1.286       .  A
O6           Cd9   2.129       .  S
Zn7          O18   1.928       .  S
Zn7          O20   1.977       .  S
Zn7          O12   1.845       .  S
O8           C19   1.290       .  A
O8          Cd13   2.138       .  S
Cd9          O11   2.113       .  S
Cd9          O12   1.942       .  S
Cd10         O14   2.012       .  S
Cd10         O23   2.051       .  S
Cd10         O12   1.929       .  S
O11          C21   1.285       .  A
O12         Cd13   1.945       .  S
Cd13         O15   2.148       .  S
O14          C21   1.267       .  A
C16          O20   1.273       .  A
C16        C1598   1.416       .  S
C17        C1592   1.441       .  S
C19        C1590   1.435       .  S
C21        C1595   1.432       .  S
C22          O23   1.273       .  A
C22        C1600   1.431       .  S
O24          C40   1.263       .  A
O24         Zn30   1.928   1_556  S
C25          O41   1.268       .  A
C25          O38   1.287       .  A
C25        C1577   1.435       .  S
O26          C39   1.273       .  A
O26         Cd33   2.050       .  S
O27          C45   1.285       .  A
O27         Cd36   2.113       .  S
O28          C42   1.289       .  A
O28         Cd32   2.132       .  S
O29          C40   1.285       .  A
O29         Cd32   2.139       .  S
Zn30         O41   1.957       .  S
Zn30         O43   1.982       .  S
Zn30         O35   1.843       .  S
O31          C42   1.266   1_554  A
O31         Cd36   2.016       .  S
Cd32         O34   2.056       .  S
Cd32         O35   1.944   1_556  S
Cd33         O37   2.046   1_554  S
Cd33         O46   2.008       .  S
Cd33         O35   1.929       .  S
O34          C44   1.272       .  A
O35         Cd36   1.934       .  S
Cd36         O38   2.120       .  S
O37          C44   1.273       .  A
C39          O43   1.272       .  A
C39        C1587   1.416       .  S
C40        C1583   1.437       .  S
C42        C1579   1.436       .  S
C44        C1586   1.422       .  S
C45          O46   1.266       .  A
C45        C1581   1.431       .  S
O47          C63   1.263       .  A
O47         Zn53   1.935       .  S
C48          O64   1.269       .  A
C48          O61   1.285       .  A
C48        C1567   1.436       .  S
O49          C62   1.276       .  A
O49         Cd56   2.062       .  S
O50          C68   1.283       .  A
O50         Cd59   2.104       .  S
O51          C65   1.289       .  A
O51         Cd55   2.135       .  S
O52          C63   1.286       .  A
O52         Cd55   2.144       .  S
Zn53         O64   1.965       .  S
Zn53         O66   1.982       .  S
Zn53         O58   1.847       .  S
O54          C65   1.266       .  A
O54         Cd59   2.017       .  S
Cd55         O57   2.067       .  S
Cd55         O58   1.944       .  S
Cd56         O60   2.057       .  S
Cd56         O69   2.015       .  S
Cd56         O58   1.931       .  S
O57          C67   1.274       .  A
O58         Cd59   1.939       .  S
Cd59         O61   2.116       .  S
O60          C67   1.275       .  A
C62          O66   1.273       .  A
C62        C1575   1.420       .  S
C63        C1570   1.441       .  S
C65        C1565   1.436       .  S
C67        C1573   1.429       .  S
C68          O69   1.267       .  A
C68        C1572   1.430       .  S
O70          C86   1.261       .  A
O70         Zn76   1.919       .  S
C71          O87   1.267       .  A
C71          O84   1.284       .  A
C71        C1553   1.433       .  S
O72          C85   1.273       .  A
O72         Cd79   2.045       .  S
O73          C91   1.283       .  A
O73         Cd82   2.099       .  S
O74          C88   1.289       .  A
O74         Cd78   2.139       .  S
O75          C86   1.287       .  A
O75         Cd78   2.147       .  S
Zn76         O87   1.954       .  S
Zn76         O89   1.979       .  S
Zn76         O81   1.844       .  S
O77          C88   1.265       .  A
O77         Cd82   2.010       .  S
Cd78         O80   2.074       .  S
Cd78         O81   1.943       .  S
Cd79         O83   2.042       .  S
Cd79         O92   2.018       .  S
Cd79         O81   1.926       .  S
O80          C90   1.275       .  A
O81         Cd82   1.938       .  S
Cd82         O84   2.115       .  S
O83          C90   1.272       .  A
C85          O89   1.273       .  A
C85        C1563   1.414       .  S
C86        C1558   1.437       .  S
C88        C1555   1.436       .  S
C90        C1562   1.426       .  S
C91          O92   1.267       .  A
C91        C1560   1.430       .  S
O93         C109   1.260       .  A
O93         Zn99   1.913       .  S
C94         O110   1.267       .  A
C94         O107   1.287       .  A
C94        C1543   1.443       .  S
O95         C108   1.275       .  A
O95        Cd102   2.060       .  S
O96         C114   1.286       .  A
O96        Cd105   2.116       .  S
O97         C111   1.289       .  A
O97        Cd101   2.132       .  S
O98         C109   1.285       .  A
O98        Cd101   2.141       .  S
Zn99        O110   1.960       .  S
Zn99        O112   1.987       .  S
Zn99        O104   1.851       .  S
O100        C111   1.267       .  A
O100       Cd105   2.021       .  S
Cd101       O103   2.074       .  S
Cd101       O104   1.949       .  S
Cd102       O106   2.060       .  S
Cd102       O115   2.014       .  S
Cd102       O104   1.932       .  S
O103        C113   1.275       .  A
O104       Cd105   1.942       .  S
Cd105       O107   2.136       .  S
O106        C113   1.274       .  A
C108        O112   1.274       .  A
C108       C1551   1.421       .  S
C109       C1548   1.434       .  S
C111       C1541   1.436       .  S
C113       C1549   1.433       .  S
C114        O115   1.267       .  A
C114       C1545   1.433       .  S
O116        C132   1.267       .  A
O116       Zn122   1.956       .  S
C117        O133   1.260       .  A
C117        O130   1.287       .  A
C117       C1534   1.436       .  S
O118        C131   1.275       .  A
O118       Cd125   2.065       .  S
O119        C137   1.275       .  A
O119       Cd128   2.072       .  S
O120        C134   1.266       .  A
O120       Cd124   2.019       .  S
O121        C132   1.286       .  A
O121       Cd124   2.123       .  S
Zn122       O133   1.912       .  S
Zn122       O135   1.982       .  S
Zn122       O127   1.846       .  S
O123        C134   1.291       .  A
O123       Cd128   2.148       .  S
Cd124       O126   2.108       .  S
Cd124       O127   1.944       .  S
Cd125       O129   2.014       .  S
Cd125       O138   2.054       .  S
Cd125       O127   1.938       .  S
O126        C136   1.284       .  A
O127       Cd128   1.953       .  S
Cd128       O130   2.148       .  S
O129        C136   1.267       .  A
C131        O135   1.272       .  A
C131       C1538   1.422       .  S
C132       C1530   1.437       .  S
C134       C1531   1.442       .  S
C136       C1535   1.431       .  S
C137        O138   1.274       .  A
C137       C1539   1.429       .  S
O139        C155   1.268       .  A
O139       Zn145   1.964       .  S
C140        O156   1.260       .  A
C140        O153   1.284       .  A
C140       C1523   1.432       .  S
O141        C154   1.275       .  A
O141       Cd148   2.061       .  S
O142        C160   1.277       .  A
O142       Cd151   2.081       .  S
O143        C157   1.266   1_455  A
O143       Cd147   2.016       .  S
O144        C155   1.286       .  A
O144       Cd147   2.127       .  S
Zn145       O156   1.917   1_455  S
Zn145       O158   1.987       .  S
Zn145       O150   1.856       .  S
O146        C157   1.287       .  A
O146       Cd151   2.132       .  S
Cd147       O149   2.111       .  S
Cd147       O150   1.949       .  S
Cd148       O152   2.023       .  S
Cd148       O161   2.052   1_455  S
Cd148       O150   1.933       .  S
O149        C159   1.285       .  A
O150       Cd151   1.955   1_455  S
Cd151       O153   2.135       .  S
O152        C159   1.268       .  A
C154        O158   1.274       .  A
C154       C1527   1.421       .  S
C155       C1517   1.442       .  S
C157       C1520   1.436       .  S
C159       C1521   1.433       .  S
C160        O161   1.273       .  A
C160       C1526   1.432       .  S
O162        C178   1.261       .  A
O162       Zn168   1.915       .  S
C163        O179   1.267       .  A
C163        O176   1.287       .  A
C163       C1506   1.440       .  S
O164        C177   1.274       .  A
O164       Cd171   2.059       .  S
O165        C183   1.285       .  A
O165       Cd174   2.111       .  S
O166        C180   1.289       .  A
O166       Cd170   2.134       .  S
O167        C178   1.285       .  A
O167       Cd170   2.136       .  S
Zn168       O179   1.955   1_545  S
Zn168       O181   1.975   1_545  S
Zn168       O173   1.843       .  S
O169        C180   1.266       .  A
O169       Cd174   2.014   1_545  S
Cd170       O172   2.065       .  S
Cd170       O173   1.947       .  S
Cd171       O175   2.053   1_565  S
Cd171       O184   2.014       .  S
Cd171       O173   1.932   1_565  S
O172        C182   1.274       .  A
O173       Cd174   1.938   1_545  S
Cd174       O176   2.131       .  S
O175        C182   1.273       .  A
C177        O181   1.271       .  A
C177       C1514   1.417       .  S
C178       C1510   1.433       .  S
C180       C1507   1.435       .  S
C182       C1516   1.426       .  S
C183        O184   1.268       .  A
C183       C1512   1.432       .  S
O185        C201   1.267       .  A
O185       Zn191   1.959       .  S
C186        O202   1.262       .  A
C186        O199   1.287       .  A
C186       C1497   1.440       .  S
O187        C200   1.273       .  A
O187       Cd194   2.048       .  S
O188        C206   1.275       .  A
O188       Cd197   2.075       .  S
O189        C203   1.266       .  A
O189       Cd193   2.014       .  S
O190        C201   1.287       .  A
O190       Cd193   2.129       .  S
Zn191       O202   1.925       .  S
Zn191       O204   1.976       .  S
Zn191       O196   1.847       .  S
O192        C203   1.290       .  A
O192       Cd197   2.139       .  S
Cd193       O195   2.115       .  S
Cd193       O196   1.941       .  S
Cd194       O198   2.011       .  S
Cd194       O207   2.052       .  S
Cd194       O196   1.929       .  S
O195        C205   1.285       .  A
O196       Cd197   1.943       .  S
Cd197       O199   2.148       .  S
O198        C205   1.266       .  A
C200        O204   1.272       .  A
C200       C1503   1.414       .  S
C201       C1493   1.440       .  S
C203       C1495   1.436       .  S
C205       C1499   1.432       .  S
C206        O207   1.273       .  A
C206       C1501   1.430       .  S
C208        C209   1.548       .  S
C208        C214   1.528       .  S
C208        C212   1.520       .  S
C208       C1491   1.468       .  S
C209        H216   1.085   1_655  S
C209        C210   1.383       .  D
C210        C211   1.558       .  S
C210        C281   1.505       .  S
C211        C215   1.524       .  S
C211        C213   1.551       .  S
C211        H217   1.111       .  S
C212        H218   1.089       .  S
C212        C213   1.354       .  D
C213       C1500   1.445       .  S
C214        H219   1.089       .  S
C214        C215   1.351       .  D
C215       C1513   1.422       .  S
C220        C221   1.516       .  S
C220        C226   1.528       .  S
C220        C224   1.540       .  S
C220       C1489   1.466       .  S
C221        H228   1.089       .  S
C221        C222   1.352       .  D
C222        C223   1.551       .  S
C222       C1509   1.446       .  S
C223        C227   1.538       .  S
C223        C225   1.574       .  S
C223        H229   1.111       .  S
C224        H230   1.085       .  S
C224        C225   1.382       .  D
C225        C295   1.518       .  S
C226        H231   1.088       .  S
C226        C227   1.355       .  D
C227       C1525   1.437       .  S
C232        C233   1.520       .  S
C232        C238   1.525       .  S
C232        C236   1.543       .  S
C232       C1487   1.461       .  S
C233        H240   1.089       .  S
C233        C234   1.352       .  D
C234        C235   1.551       .  S
C234       C1485   1.446       .  S
C235        C239   1.536       .  S
C235        C237   1.571       .  S
C235        H241   1.111       .  S
C236        H242   1.085   1_565  S
C236        C237   1.381       .  D
C237        C301   1.514       .  S
C238        H243   1.088       .  S
C238        C239   1.353       .  D
C239       C1502   1.435       .  S
C244        C245   1.545       .  S
C244        C250   1.527       .  S
C244        C248   1.522       .  S
C244       C1483   1.465       .  S
C245        H252   1.085       .  S
C245        C246   1.380       .  D
C246        C247   1.559       .  S
C246        C296   1.502       .  S
C247        C251   1.528       .  S
C247        C249   1.550       .  S
C247        H253   1.111       .  S
C248        H254   1.089       .  S
C248        C249   1.354       .  D
C249       C1522   1.445       .  S
C250        H255   1.088       .  S
C250        C251   1.353       .  D
C251       C1552   1.426       .  S
C256        C257   1.520       .  S
C256        C262   1.530       .  S
C256        C260   1.549       .  S
C256       C1481   1.470       .  S
C257        H264   1.089       .  S
C257        C258   1.352       .  D
C258        C259   1.549       .  S
C258       C1547   1.450       .  S
C259        C263   1.524       .  S
C259        C261   1.567       .  S
C259        H265   1.111       .  S
C260        H266   1.085   1_455  S
C260        C261   1.385       .  D
C261        C300   1.518       .  S
C262        H267   1.088       .  S
C262        C263   1.353       .  D
C263       C1480   1.423       .  S
C268        C269   1.546       .  S
C268        C274   1.529       .  S
C268        C272   1.515       .  S
C268       C1591   1.468       .  S
C269        H276   1.085       .  S
C269        C270   1.382       .  D
C270        C271   1.566       .  S
C270        C298   1.508       .  S
C271        C275   1.535       .  S
C271        C273   1.553       .  S
C271        H277   1.111       .  S
C272        H278   1.089       .  S
C272        C273   1.350       .  D
C273       C1475   1.445       .  S
C274        H279   1.088       .  S
C274        C275   1.355       .  D
C275       C1478   1.434       .  S
O280        C296   1.282       .  A
O280       Zn286   2.093   1_455  S
C281        O297   1.285       .  A
C281        O294   1.280       .  A
O282        C295   1.287       .  A
O282       Cd289   2.146       .  S
O283        C301   1.279       .  A
O283       Cd292   2.108       .  S
O284        C298   1.284       .  A
O284       Cd288   2.146   1_565  S
O285        C296   1.281       .  A
O285       Cd288   2.118       .  S
Zn286       O297   2.099   1_545  S
Zn286       O299   2.095       .  S
Zn286       O291   2.007       .  S
O287        C298   1.281       .  A
O287       Cd292   2.121   1_455  S
Cd288       O290   2.121       .  S
Cd288       O291   2.044   1_455  S
Cd289       O293   2.160       .  S
Cd289       O302   2.159       .  S
Cd289       O291   2.052       .  S
O290        C300   1.282       .  A
O291       Cd292   2.046   1_545  S
Cd292       O294   2.123       .  S
O293        C300   1.288   1_655  A
C295        O299   1.282       .  A
C301        O302   1.289   1_565  A
O303        C319   1.259       .  A
O303       Zn309   1.912       .  S
C304        O320   1.265       .  A
C304        O317   1.286       .  A
C304       C1490   1.436       .  S
O305        C318   1.274       .  A
O305       Cd312   2.057       .  S
O306        C324   1.285       .  A
O306       Cd315   2.110       .  S
O307        C321   1.288       .  A
O307       Cd311   2.129       .  S
O308        C319   1.284       .  A
O308       Cd311   2.137       .  S
Zn309       O320   1.945       .  S
Zn309       O322   1.973       .  S
Zn309       O314   1.847       .  S
O310        C321   1.268       .  A
O310       Cd315   2.020       .  S
Cd311       O313   2.075       .  S
Cd311       O314   1.946       .  S
Cd312       O316   2.056       .  S
Cd312       O325   2.021       .  S
Cd312       O314   1.932       .  S
O313        C323   1.276       .  A
O314       Cd315   1.943       .  S
Cd315       O317   2.128       .  S
O316        C323   1.274       .  A
C318        O322   1.272       .  A
C318       C1474   1.416       .  S
C319       C1470   1.433       .  S
C321       C1466   1.435       .  S
C323       C1471   1.431       .  S
C324        O325   1.268       .  A
C324       C1467   1.432       .  S
O326        C342   1.260       .  A
O326       Zn332   1.916   1_455  S
C327        O343   1.266       .  A
C327        O340   1.288       .  A
C327       C1458   1.442       .  S
O328        C341   1.274       .  A
O328       Cd335   2.059       .  S
O329        C347   1.286       .  A
O329       Cd338   2.121       .  S
O330        C344   1.288       .  A
O330       Cd334   2.130       .  S
O331        C342   1.284       .  A
O331       Cd334   2.133       .  S
Zn332       O343   1.952       .  S
Zn332       O345   1.979       .  S
Zn332       O337   1.851       .  S
O333        C344   1.267   1_655  A
O333       Cd338   2.023       .  S
Cd334       O336   2.068       .  S
Cd334       O337   1.949   1_455  S
Cd335       O339   2.060   1_655  S
Cd335       O348   2.017       .  S
Cd335       O337   1.938       .  S
O336        C346   1.274       .  A
O337       Cd338   1.944       .  S
Cd338       O340   2.140       .  S
O339        C346   1.274       .  A
C341        O345   1.272       .  A
C341       C1463   1.418       .  S
C342       C1461   1.433       .  S
C344       C1459   1.437       .  S
C346       C1477   1.430       .  S
C347        O348   1.268       .  A
C347       C1486   1.435       .  S
C349        C350   1.518       .  S
C349        C355   1.528       .  S
C349        C353   1.545       .  S
C349       C1455   1.466       .  S
C350        H357   1.089       .  S
C350        C351   1.354       .  D
C351        C352   1.551       .  S
C351       C1462   1.446       .  S
C352        C356   1.525       .  S
C352        C354   1.563       .  S
C352        H358   1.111       .  S
C353        H359   1.085       .  S
C353        C354   1.381       .  D
C354        C439   1.505       .  S
C355        H360   1.089       .  S
C355        C356   1.352       .  D
C356       C1597   1.422       .  S
C361        C362   1.519       .  S
C361        C367   1.530       .  S
C361        C365   1.548       .  S
C361       C1544   1.470       .  S
C362        H369   1.089       .  S
C362        C363   1.353       .  D
C363        C364   1.549       .  S
C363       C1571   1.442       .  S
C364        C368   1.526       .  S
C364        C366   1.559       .  S
C364        H370   1.111       .  S
C365        H371   1.085       .  S
C365        C366   1.383       .  D
C366        C437   1.506       .  S
C367        H372   1.088       .  S
C367        C368   1.352       .  D
C368       C1528   1.427       .  S
C373        C374   1.544       .  S
C373        C379   1.525       .  S
C373        C377   1.521       .  S
C373       C1496   1.464       .  S
C374        H381   1.085       .  S
C374        C375   1.382       .  D
C375        C376   1.569       .  S
C375        C442   1.517       .  S
C376        C380   1.526       .  S
C376        C378   1.552       .  S
C376        H382   1.111       .  S
C377        H383   1.089       .  S
C377        C378   1.354       .  D
C378       C1453   1.452       .  S
C379        H384   1.089       .  S
C379        C380   1.352       .  D
C380       C1464   1.423       .  S
C385        C386   1.550       .  S
C385        C391   1.524       .  S
C385        C389   1.520       .  S
C385       C1532   1.471       .  S
C386        H393   1.085       .  S
C386        C387   1.386       .  D
C387        C388   1.564       .  S
C387        C436   1.518       .  S
C388        C392   1.525       .  S
C388        C390   1.549       .  S
C388        H394   1.111       .  S
C389        H395   1.089       .  S
C389        C390   1.353       .  D
C390       C1524   1.446       .  S
C391        H396   1.088       .  S
C391        C392   1.353       .  D
C392       C1473   1.421       .  S
C397        C398   1.520       .  S
C397        C403   1.527       .  S
C397        C401   1.545       .  S
C397       C1451   1.466       .  S
C398        H405   1.089       .  S
C398        C399   1.354       .  D
C399        C400   1.551       .  S
C399       C1469   1.448       .  S
C400        C404   1.525       .  S
C400        C402   1.563       .  S
C400        H406   1.111       .  S
C401        H407   1.085   1_655  S
C401        C402   1.381       .  D
C402        C422   1.507       .  S
C403        H408   1.088       .  S
C403        C404   1.355       .  D
C404       C1450   1.422       .  S
C409        C410   1.545       .  S
C409        C415   1.522       .  S
C409        C413   1.519       .  S
C409       C1448   1.467       .  S
C410        H417   1.085       .  S
C410        C411   1.383       .  D
C411        C412   1.573       .  S
C411        C441   1.519       .  S
C412        C416   1.538       .  S
C412        C414   1.554       .  S
C412        H418   1.111       .  S
C413        H419   1.089       .  S
C413        C414   1.353       .  D
C414       C1594   1.451       .  S
C415        H420   1.089       .  S
C415        C416   1.352       .  D
C416       C1574   1.432       .  S
O421        C437   1.284       .  A
O421       Zn427   2.095   1_455  S
C422        O438   1.284       .  A
C422        O435   1.282       .  A
O423        C436   1.286       .  A
O423       Cd430   2.148       .  S
O424        C442   1.281       .  A
O424       Cd433   2.118       .  S
O425        C439   1.283       .  A
O425       Cd429   2.127       .  S
O426        C437   1.282       .  A
O426       Cd429   2.130       .  S
Zn427       O438   2.107       .  S
Zn427       O440   2.087       .  S
Zn427       O432   2.003   1_655  S
O428        C439   1.283       .  A
O428       Cd433   2.136   1_455  S
Cd429       O431   2.123       .  S
Cd429       O432   2.049       .  S
Cd430       O434   2.157   1_655  S
Cd430       O443   2.156       .  S
Cd430       O432   2.053   1_655  S
O431        C441   1.281       .  A
O432       Cd433   2.048   1_455  S
Cd433       O435   2.122       .  S
O434        C441   1.288       .  A
C436        O440   1.283       .  A
C442        O443   1.288       .  A
C444        C445   1.540       .  S
C444        C450   1.525       .  S
C444        C448   1.518       .  S
C444       C1445   1.461       .  S
C445        H452   1.085       .  S
C445        C446   1.381       .  D
C446        C447   1.575       .  S
C446        C537   1.515       .  S
C447        C451   1.534       .  S
C447        C449   1.552       .  S
C447        H453   1.111       .  S
C448        H454   1.089       .  S
C448        C449   1.351       .  D
C449       C1533   1.450       .  S
C450        H455   1.089       .  S
C450        C451   1.354       .  D
C451       C1561   1.430       .  S
C456        C457   1.518       .  S
C456        C462   1.531       .  S
C456        C460   1.544       .  S
C456       C1443   1.464       .  S
C457        H464   1.089       .  S
C457        C458   1.353       .  D
C458        C459   1.553       .  S
C458       C1582   1.444       .  S
C459        C463   1.527       .  S
C459        C461   1.560       .  S
C459        H465   1.111       .  S
C460        H466   1.085       .  S
C460        C461   1.380       .  D
C461        C517   1.502       .  S
C462        H467   1.088       .  S
C462        C463   1.353       .  D
C463       C1537   1.427       .  S
C468        C469   1.540       .  S
C468        C474   1.528       .  S
C468        C472   1.518       .  S
C468       C1441   1.464       .  S
C469        H476   1.085       .  S
C469        C470   1.380       .  D
C470        C471   1.577       .  S
C470        C536   1.519       .  S
C471        C475   1.539       .  S
C471        C473   1.552       .  S
C471        H477   1.111       .  S
C472        H478   1.089       .  S
C472        C473   1.352       .  D
C473       C1437   1.449       .  S
C474        H479   1.088       .  S
C474        C475   1.355       .  D
C475       C1439   1.440       .  S
C480        C481   1.520       .  S
C480        C486   1.528       .  S
C480        C484   1.547       .  S
C480       C1435   1.467       .  S
C481        H488   1.089       .  S
C481        C482   1.354       .  D
C482        C483   1.547       .  S
C482       C1433   1.441       .  S
C483        C487   1.522       .  S
C483        C485   1.554       .  S
C483        H489   1.111       .  S
C484        H490   1.085   1_556  S
C484        C485   1.382       .  D
C485        C532   1.499       .  S
C486        H491   1.088       .  S
C486        C487   1.353       .  D
C487       C1432   1.420       .  S
C492        C493   1.548       .  S
C492        C498   1.522       .  S
C492        C496   1.520       .  S
C492       C1429   1.470       .  S
C493        H500   1.085       .  S
C493        C494   1.385       .  D
C494        C495   1.572       .  S
C494        C531   1.522       .  S
C495        C499   1.532       .  S
C495        C497   1.554       .  S
C495        H501   1.111       .  S
C496        H502   1.089       .  S
C496        C497   1.353       .  D
C497       C1427   1.453       .  S
C498        H503   1.089       .  S
C498        C499   1.353       .  D
C499       C1585   1.426       .  S
C504        C505   1.520       .  S
C504        C510   1.530       .  S
C504        C508   1.543       .  S
C504       C1568   1.464       .  S
C505        H512   1.089       .  S
C505        C506   1.355       .  D
C506        C507   1.549       .  S
C506       C1559   1.443       .  S
C507        C511   1.524       .  S
C507        C509   1.557       .  S
C507        H513   1.111       .  S
C508        H514   1.085       .  S
C508        C509   1.379       .  D
C509        C534   1.499       .  S
C510        H515   1.088       .  S
C510        C511   1.353       .  D
C511       C1426   1.423       .  S
O516        C532   1.283       .  A
O516       Zn522   2.082       .  S
C517        O533   1.281       .  A
C517        O530   1.282       .  A
O518        C531   1.288       .  A
O518       Cd525   2.162       .  S
O519        C537   1.279       .  A
O519       Cd528   2.111       .  S
O520        C534   1.282       .  A
O520       Cd524   2.123   1_554  S
O521        C532   1.280       .  A
O521       Cd524   2.119       .  S
Zn522       O533   2.087   1_556  S
Zn522       O535   2.085       .  S
Zn522       O527   1.999   1_556  S
O523        C534   1.280       .  A
O523       Cd528   2.122       .  S
Cd524       O526   2.118       .  S
Cd524       O527   2.047   1_556  S
Cd525       O529   2.165       .  S
Cd525       O538   2.162   1_556  S
Cd525       O527   2.047   1_556  S
O526        C536   1.280       .  A
O527       Cd528   2.046       .  S
Cd528       O530   2.123       .  S
O529        C536   1.290       .  A
C531        O535   1.282       .  A
C537        O538   1.290       .  A
O539        C555   1.260       .  A
O539       Zn545   1.917       .  S
C540        O556   1.267       .  A
C540        O553   1.284       .  A
C540       C1456   1.439       .  S
O541        C554   1.275       .  A
O541       Cd548   2.059       .  S
O542        C560   1.283       .  A
O542       Cd551   2.101       .  S
O543        C557   1.289       .  A
O543       Cd547   2.133       .  S
O544        C555   1.286       .  A
O544       Cd547   2.144       .  S
Zn545       O556   1.963       .  S
Zn545       O558   1.979       .  S
Zn545       O550   1.848       .  S
O546        C557   1.267       .  A
O546       Cd551   2.015       .  S
Cd547       O549   2.083       .  S
Cd547       O550   1.947       .  S
Cd548       O552   2.058       .  S
Cd548       O561   2.019       .  S
Cd548       O550   1.931       .  S
O549        C559   1.276       .  A
O550       Cd551   1.944       .  S
Cd551       O553   2.119       .  S
O552        C559   1.274       .  A
C554        O558   1.273       .  A
C554       C1423   1.419       .  S
C555       C1421   1.436       .  S
C557       C1419   1.434       .  S
C559       C1440   1.435       .  S
C560        O561   1.268       .  A
C560       C1434   1.429       .  S
C562        C563   1.546       .  S
C562        C568   1.527       .  S
C562        C566   1.521       .  S
C562       C1494   1.466       .  S
C563        H570   1.085       .  S
C563        C564   1.384       .  D
C564        C565   1.562       .  S
C564        C655   1.510       .  S
C565        C569   1.525       .  S
C565        C567   1.548       .  S
C565        H571   1.111       .  S
C566        H572   1.089       .  S
C566        C567   1.353       .  D
C567       C1536   1.444       .  S
C568        H573   1.088       .  S
C568        C569   1.352       .  D
C569       C1417   1.424       .  S
C574        C575   1.539       .  S
C574        C580   1.528       .  S
C574        C578   1.516       .  S
C574       C1416   1.466       .  S
C575        H582   1.085       .  S
C575        C576   1.382       .  D
C576        C577   1.577       .  S
C576        C649   1.521       .  S
C577        C581   1.537       .  S
C577        C579   1.556       .  S
C577        H583   1.111       .  S
C578        H584   1.089       .  S
C578        C579   1.352       .  D
C579       C1413   1.452       .  S
C580        H585   1.088       .  S
C580        C581   1.354       .  D
C581       C1472   1.436       .  S
C586        C587   1.541       .  S
C586        C592   1.528       .  S
C586        C590   1.520       .  S
C586       C1411   1.459       .  S
C587        H594   1.085       .  S
C587        C588   1.381       .  D
C588        C589   1.565       .  S
C588        C654   1.506       .  S
C589        C593   1.526       .  S
C589        C591   1.550       .  S
C589        H595   1.111       .  S
C590        H596   1.089       .  S
C590        C591   1.353       .  D
C591       C1596   1.445       .  S
C592        H597   1.089       .  S
C592        C593   1.351       .  D
C593       C1424   1.424       .  S
C598        C599   1.518       .  S
C598        C604   1.524       .  S
C598        C602   1.544       .  S
C598       C1566   1.466       .  S
C599        H606   1.089       .  S
C599        C600   1.353       .  D
C600        C601   1.554       .  S
C600       C1409   1.448       .  S
C601        C605   1.537       .  S
C601        C603   1.572       .  S
C601        H607   1.111       .  S
C602        H608   1.086       .  S
C602        C603   1.380       .  D
C603        C652   1.513       .  S
C604        H609   1.089       .  S
C604        C605   1.353       .  D
C605       C1599   1.435       .  S
C610        C611   1.518       .  S
C610        C616   1.525       .  S
C610        C614   1.546       .  S
C610       C1556   1.464       .  S
C611        H618   1.089       .  S
C611        C612   1.353       .  D
C612        C613   1.550       .  S
C612       C1468   1.441       .  S
C613        C617   1.534       .  S
C613        C615   1.564       .  S
C613        H619   1.111       .  S
C614        H620   1.085       .  S
C614        C615   1.381       .  D
C615        C635   1.506       .  S
C616        H621   1.089       .  S
C616        C617   1.351       .  D
C617       C1540   1.433       .  S
C622        C623   1.519       .  S
C622        C628   1.525       .  S
C622        C626   1.544       .  S
C622       C1542   1.465       .  S
C623        H630   1.089       .  S
C623        C624   1.353       .  D
C624        C625   1.554       .  S
C624       C1422   1.450       .  S
C625        C629   1.526       .  S
C625        C627   1.563       .  S
C625        H631   1.111       .  S
C626        H632   1.086       .  S
C626        C627   1.380       .  D
C627        C650   1.505       .  S
C628        H633   1.088       .  S
C628        C629   1.354       .  D
C629       C1408   1.421       .  S
O634        C650   1.285       .  A
O634       Zn640   2.099       .  S
C635        O651   1.285       .  A
C635        O648   1.282       .  A
O636        C649   1.286       .  A
O636       Cd643   2.144       .  S
O637        C655   1.281       .  A
O637       Cd646   2.115       .  S
O638        C652   1.281       .  A
O638       Cd642   2.124       .  S
O639        C650   1.281       .  A
O639       Cd642   2.126       .  S
Zn640       O651   2.104       .  S
Zn640       O653   2.101       .  S
Zn640       O645   2.007       .  S
O641        C652   1.286       .  A
O641       Cd646   2.158       .  S
Cd642       O644   2.096       .  S
Cd642       O645   2.045       .  S
Cd643       O647   2.142       .  S
Cd643       O656   2.137       .  S
Cd643       O645   2.049       .  S
O644        C654   1.278       .  A
O645       Cd646   2.045       .  S
Cd646       O648   2.124       .  S
O647        C654   1.285       .  A
C649        O653   1.282       .  A
C655        O656   1.284       .  A
O657        C673   1.267       .  A
O657       Zn663   1.948       .  S
C658        O674   1.260       .  A
C658        O671   1.287       .  A
C658       C1428   1.440       .  S
O659        C672   1.273       .  A
O659       Cd666   2.050       .  S
O660        C678   1.273       .  A
O660       Cd669   2.061       .  S
O661        C675   1.268       .  A
O661       Cd665   2.021       .  S
O662        C673   1.286       .  A
O662       Cd665   2.121       .  S
Zn663       O674   1.921       .  S
Zn663       O676   1.976       .  S
Zn663       O668   1.844       .  S
O664        C675   1.290       .  A
O664       Cd669   2.136       .  S
Cd665       O667   2.117       .  S
Cd665       O668   1.939       .  S
Cd666       O670   2.014       .  S
Cd666       O679   2.045       .  S
Cd666       O668   1.928       .  S
O667        C677   1.285       .  A
O668       Cd669   1.945       .  S
Cd669       O671   2.152       .  S
O670        C677   1.267       .  A
C672        O676   1.272       .  A
C672       C1431   1.415       .  S
C673       C1412   1.434       .  S
C675       C1401   1.439       .  S
C677       C1404   1.434       .  S
C678        O679   1.273       .  A
C678       C1405   1.424       .  S
O680        C696   1.266       .  A
O680       Zn686   1.951   1_565  S
C681        O697   1.258       .  A
C681        O694   1.286       .  A
C681       C1393   1.435       .  S
O682        C695   1.276       .  A
O682       Cd689   2.063       .  S
O683        C701   1.275       .  A
O683       Cd692   2.068       .  S
O684        C698   1.267       .  A
O684       Cd688   2.020   1_545  S
O685        C696   1.288       .  A
O685       Cd688   2.139       .  S
Zn686       O697   1.905       .  S
Zn686       O699   1.974   1_545  S
Zn686       O691   1.845       .  S
O687        C698   1.289       .  A
O687       Cd692   2.135       .  S
Cd688       O690   2.124       .  S
Cd688       O691   1.941   1_565  S
Cd689       O693   2.021       .  S
Cd689       O702   2.058   1_565  S
Cd689       O691   1.932   1_565  S
O690        C700   1.287       .  A
O691       Cd692   1.945       .  S
Cd692       O694   2.149       .  S
O693        C700   1.268       .  A
C695        O699   1.272       .  A
C695       C1398   1.418       .  S
C696       C1391   1.441       .  S
C698       C1484   1.437       .  S
C700       C1396   1.438       .  S
C701        O702   1.275       .  A
C701       C1400   1.430       .  S
O703        C719   1.261       .  A
O703       Zn709   1.923   1_556  S
C704        O720   1.268       .  A
C704        O717   1.285       .  A
C704       C1381   1.440       .  S
O705        C718   1.275       .  A
O705       Cd712   2.061       .  S
O706        C724   1.284       .  A
O706       Cd715   2.105       .  S
O707        C721   1.290       .  A
O707       Cd711   2.147       .  S
O708        C719   1.288       .  A
O708       Cd711   2.155       .  S
Zn709       O720   1.965       .  S
Zn709       O722   1.979       .  S
Zn709       O714   1.849       .  S
O710        C721   1.265   1_554  A
O710       Cd715   2.013       .  S
Cd711       O713   2.078       .  S
Cd711       O714   1.949   1_556  S
Cd712       O716   2.050   1_554  S
Cd712       O725   2.018       .  S
Cd712       O714   1.931       .  S
O713        C723   1.276       .  A
O714       Cd715   1.942       .  S
Cd715       O717   2.125       .  S
O716        C723   1.273       .  A
C718        O722   1.273       .  A
C718       C1390   1.419       .  S
C719       C1385   1.441       .  S
C721       C1436   1.438       .  S
C723       C1387   1.430       .  S
C724        O725   1.268       .  A
C724       C1384   1.431       .  S
C726        C727   1.542       .  S
C726        C732   1.526       .  S
C726        C730   1.519       .  S
C726       C1379   1.462       .  S
C727        H734   1.086   1_565  S
C727        C728   1.378       .  D
C728        C729   1.567       .  S
C728        C814   1.505       .  S
C729        C733   1.535       .  S
C729        C731   1.553       .  S
C729        H735   1.111       .  S
C730        H736   1.089       .  S
C730        C731   1.354       .  D
C731       C1403   1.445       .  S
C732        H737   1.089       .  S
C732        C733   1.353       .  D
C733       C1388   1.434       .  S
C738        C739   1.517       .  S
C738        C744   1.522       .  S
C738        C742   1.544       .  S
C738       C1580   1.465       .  S
C739        H746   1.089       .  S
C739        C740   1.351       .  D
C740        C741   1.555       .  S
C740       C1377   1.450       .  S
C741        C745   1.535       .  S
C741        C743   1.573       .  S
C741        H747   1.111       .  S
C742        H748   1.085       .  S
C742        C743   1.384       .  D
C743        C813   1.520       .  S
C744        H749   1.089       .  S
C744        C745   1.353       .  D
C745       C1406   1.427       .  S
C750        C751   1.521       .  S
C750        C756   1.525       .  S
C750        C754   1.547       .  S
C750       C1375   1.463       .  S
C751        H758   1.089       .  S
C751        C752   1.353       .  D
C752        C753   1.548       .  S
C752       C1383   1.444       .  S
C753        C757   1.526       .  S
C753        C755   1.562       .  S
C753        H759   1.111       .  S
C754        H760   1.085       .  S
C754        C755   1.382       .  D
C755        C818   1.509       .  S
C756        H761   1.088       .  S
C756        C757   1.352       .  D
C757       C1397   1.423       .  S
C762        C763   1.545       .  S
C762        C768   1.530       .  S
C762        C766   1.520       .  S
C762       C1373   1.468       .  S
C763        H770   1.085       .  S
C763        C764   1.381       .  D
C764        C765   1.563       .  S
C764        C816   1.508       .  S
C765        C769   1.522       .  S
C765        C767   1.553       .  S
C765        H771   1.111       .  S
C766        H772   1.089       .  S
C766        C767   1.354       .  D
C767       C1394   1.452       .  S
C768        H773   1.088       .  S
C768        C769   1.355       .  D
C769       C1564   1.420       .  S
C774        C775   1.544       .  S
C774        C780   1.526       .  S
C774        C778   1.522       .  S
C774       C1371   1.463       .  S
C775        H782   1.085       .  S
C775        C776   1.379       .  D
C776        C777   1.557       .  S
C776        C799   1.498       .  S
C777        C781   1.524       .  S
C777        C779   1.550       .  S
C777        H783   1.111       .  S
C778        H784   1.089       .  S
C778        C779   1.355       .  D
C779       C1370   1.445       .  S
C780        H785   1.088       .  S
C780        C781   1.353       .  D
C781       C1367   1.421       .  S
C786        C787   1.520       .  S
C786        C792   1.523       .  S
C786        C790   1.543       .  S
C786       C1508   1.464       .  S
C787        H794   1.089       .  S
C787        C788   1.353       .  D
C788        C789   1.553       .  S
C788       C1557   1.451       .  S
C789        C793   1.534       .  S
C789        C791   1.574       .  S
C789        H795   1.111       .  S
C790        H796   1.085       .  S
C790        C791   1.382       .  D
C791        C819   1.520       .  S
C792        H797   1.089       .  S
C792        C793   1.353       .  D
C793       C1366   1.429       .  S
O798        C814   1.283       .  A
O798       Zn804   2.103   1_565  S
C799        O815   1.284       .  A
C799        O812   1.280       .  A
O800        C813   1.287       .  A
O800       Cd807   2.151   1_556  S
O801        C819   1.281       .  A
O801       Cd810   2.122       .  S
O802        C816   1.282       .  A
O802       Cd806   2.136   1_545  S
O803        C814   1.280       .  A
O803       Cd806   2.117   1_556  S
Zn804       O815   2.090       .  S
Zn804       O817   2.093   1_545  S
Zn804       O809   2.005       .  S
O805        C816   1.283       .  A
O805       Cd810   2.134       .  S
Cd806       O808   2.098       .  S
Cd806       O809   2.043   1_564  S
Cd807       O811   2.151       .  S
Cd807       O820   2.160   1_565  S
Cd807       O809   2.051   1_564  S
O808        C818   1.279       .  A
O809       Cd810   2.048   1_556  S
Cd810       O812   2.116   1_554  S
O811        C818   1.287       .  A
C813        O817   1.282       .  A
C819        O820   1.289       .  A
O821        C837   1.267       .  A
O821       Zn827   1.961       .  S
C822        O838   1.260       .  A
C822        O835   1.285       .  A
C822       C1358   1.434       .  S
O823        C836   1.275       .  A
O823       Cd830   2.061       .  S
O824        C842   1.275       .  A
O824       Cd833   2.074       .  S
O825        C839   1.267   1_655  A
O825       Cd829   2.019       .  S
O826        C837   1.287       .  A
O826       Cd829   2.128       .  S
Zn827       O838   1.916   1_655  S
Zn827       O840   1.988       .  S
Zn827       O832   1.851       .  S
O828        C839   1.289       .  A
O828       Cd833   2.137       .  S
Cd829       O831   2.109       .  S
Cd829       O832   1.944       .  S
Cd830       O834   2.018       .  S
Cd830       O843   2.055   1_655  S
Cd830       O832   1.937       .  S
O831        C841   1.285       .  A
O832       Cd833   1.952   1_655  S
Cd833       O835   2.140       .  S
O834        C841   1.268       .  A
C836        O840   1.273       .  A
C836       C1362   1.422       .  S
C837       C1492   1.442       .  S
C839       C1447   1.438       .  S
C841       C1360   1.432       .  S
C842        O843   1.274       .  A
C842       C1363   1.430       .  S
O844        C860   1.267       .  A
O844       Zn850   1.954       .  S
C845        O861   1.261       .  A
C845        O858   1.286       .  A
C845       C1353   1.437       .  S
O846        C859   1.274       .  A
O846       Cd853   2.056       .  S
O847        C865   1.274       .  A
O847       Cd856   2.068       .  S
O848        C862   1.265   1_556  A
O848       Cd852   2.008       .  S
O849        C860   1.286       .  A
O849       Cd852   2.118       .  S
Zn850       O861   1.922   1_556  S
Zn850       O863   1.974       .  S
Zn850       O855   1.842       .  S
O851        C862   1.288       .  A
O851       Cd856   2.131       .  S
Cd852       O854   2.109       .  S
Cd852       O855   1.939       .  S
Cd853       O857   2.019       .  S
Cd853       O866   2.043   1_556  S
Cd853       O855   1.927       .  S
O854        C864   1.284       .  A
O855       Cd856   1.948   1_556  S
Cd856       O858   2.143       .  S
O857        C864   1.268       .  A
C859        O863   1.272       .  A
C859       C1356   1.416       .  S
C860       C1352   1.434       .  S
C862       C1446   1.432       .  S
C864       C1369   1.433       .  S
C865        O866   1.273       .  A
C865       C1365   1.425       .  S
O867        C883   1.270       .  A
O867       Zn873   1.969       .  S
C868        O884   1.263       .  A
C868        O881   1.284       .  A
C868       C1476   1.435       .  S
O869        C882   1.274       .  A
O869       Cd876   2.050       .  S
O870        C888   1.273       .  A
O870       Cd879   2.061       .  S
O871        C885   1.266   1_545  A
O871       Cd875   2.017       .  S
O872        C883   1.285       .  A
O872       Cd875   2.113       .  S
Zn873       O884   1.935   1_545  S
Zn873       O886   1.989       .  S
Zn873       O878   1.846       .  S
O874        C885   1.287       .  A
O874       Cd879   2.122       .  S
Cd875       O877   2.108       .  S
Cd875       O878   1.939       .  S
Cd876       O880   2.015       .  S
Cd876       O889   2.046   1_545  S
Cd876       O878   1.928       .  S
O877        C887   1.284       .  A
O878       Cd879   1.943   1_545  S
Cd879       O881   2.129       .  S
O880        C887   1.267       .  A
C882        O886   1.274       .  A
C882       C1479   1.418       .  S
C883       C1345   1.436       .  S
C885       C1380   1.433       .  S
C887       C1348   1.432       .  S
C888        O889   1.273       .  A
C888       C1350   1.424       .  S
C890        C891   1.546       .  S
C890        C896   1.524       .  S
C890        C894   1.521       .  S
C890       C1343   1.463       .  S
C891        H898   1.085   1_556  S
C891        C892   1.381       .  D
C892        C893   1.559       .  S
C892        C963   1.503       .  S
C893        C897   1.527       .  S
C893        C895   1.550       .  S
C893        H899   1.111       .  S
C894        H900   1.089       .  S
C894        C895   1.354       .  D
C895       C1347   1.444       .  S
C896        H901   1.089       .  S
C896        C897   1.351       .  D
C897       C1341   1.422       .  S
C902        C903   1.546       .  S
C902        C908   1.529       .  S
C902        C906   1.518       .  S
C902       C1392   1.468       .  S
C903        H910   1.085   1_565  S
C903        C904   1.382       .  D
C904        C905   1.563       .  S
C904        C980   1.507       .  S
C905        C909   1.527       .  S
C905        C907   1.553       .  S
C905        H911   1.111       .  S
C906        H912   1.089       .  S
C906        C907   1.353       .  D
C907       C1357   1.448       .  S
C908        H913   1.088       .  S
C908        C909   1.353       .  D
C909       C1389   1.425       .  S
C914        C915   1.545       .  S
C914        C920   1.526       .  S
C914        C918   1.518       .  S
C914       C1519   1.465       .  S
C915        H922   1.086       .  S
C915        C916   1.381       .  D
C916        C917   1.569       .  S
C916        C978   1.511       .  S
C917        C921   1.533       .  S
C917        C919   1.555       .  S
C917        H923   1.111       .  S
C918        H924   1.089       .  S
C918        C919   1.353       .  D
C919       C1354   1.449       .  S
C920        H925   1.088       .  S
C920        C921   1.354       .  D
C921       C1515   1.431       .  S
C926        C927   1.521       .  S
C926        C932   1.530       .  S
C926        C930   1.541       .  S
C926       C1578   1.461       .  S
C927        H934   1.089       .  S
C927        C928   1.354       .  D
C928        C929   1.549       .  S
C928       C1511   1.446       .  S
C929        C933   1.526       .  S
C929        C931   1.565       .  S
C929        H935   1.111       .  S
C930        H936   1.085   1_554  S
C930        C931   1.380       .  D
C931        C982   1.507       .  S
C932        H937   1.088       .  S
C932        C933   1.353       .  D
C933       C1361   1.427       .  S
C938        C939   1.520       .  S
C938        C944   1.521       .  S
C938        C942   1.544       .  S
C938       C1460   1.466       .  S
C939        H946   1.089       .  S
C939        C940   1.353       .  D
C940        C941   1.555       .  S
C940       C1386   1.453       .  S
C941        C945   1.535       .  S
C941        C943   1.572       .  S
C941        H947   1.111       .  S
C942        H948   1.085       .  S
C942        C943   1.383       .  D
C943        C983   1.519       .  S
C944        H949   1.089       .  S
C944        C945   1.353       .  D
C945       C1349   1.428       .  S
C950        C951   1.518       .  S
C950        C956   1.527       .  S
C950        C954   1.542       .  S
C950       C1339   1.463       .  S
C951        H958   1.089       .  S
C951        C952   1.353       .  D
C952        C953   1.550       .  S
C952       C1337   1.447       .  S
C953        C957   1.527       .  S
C953        C955   1.565       .  S
C953        H959   1.111       .  S
C954        H960   1.085       .  S
C954        C955   1.383       .  D
C955        C977   1.510       .  S
C956        H961   1.088       .  S
C956        C957   1.352       .  D
C957       C1355   1.422       .  S
O962        C978   1.285       .  A
O962       Zn968   2.118   1_554  S
C963        O979   1.284       .  A
C963        O976   1.282       .  A
O964        C977   1.283       .  A
O964       Cd971   2.127   1_545  S
O965        C983   1.281       .  A
O965       Cd974   2.127       .  S
O966        C980   1.283       .  A
O966       Cd970   2.136   1_465  S
O967        C978   1.281       .  A
O967       Cd970   2.123       .  S
Zn968       O979   2.091   1_655  S
Zn968       O981   2.085       .  S
Zn968       O973   2.004   1_656  S
O969        C980   1.284       .  A
O969       Cd974   2.132   1_554  S
Cd970       O972   2.104   1_545  S
Cd970       O973   2.044   1_655  S
Cd971       O975   2.141       .  S
Cd971       O984   2.150   1_655  S
Cd971       O973   2.048   1_666  S
O972        C982   1.279       .  A
O973       Cd974   2.048   1_544  S
Cd974       O976   2.126   1_565  S
O975        C982   1.286   1_556  A
C977        O981   1.282       .  A
C983        O984   1.286       .  A
O985       C1001   1.269       .  A
O985       Zn991   1.970       .  S
C986       O1002   1.262       .  A
C986        O999   1.286       .  A
C986       C1438   1.437       .  S
O987       C1000   1.274       .  A
O987       Cd994   2.052       .  S
O988       C1006   1.275       .  A
O988       Cd997   2.071       .  S
O989       C1003   1.265   1_554  A
O989       Cd993   2.009       .  S
O990       C1001   1.286       .  A
O990       Cd993   2.126       .  S
Zn991      O1002   1.923   1_554  S
Zn991      O1004   1.982       .  S
Zn991       O996   1.849       .  S
O992       C1003   1.289       .  A
O992       Cd997   2.136       .  S
Cd993       O995   2.103       .  S
Cd993       O996   1.939       .  S
Cd994       O998   2.013       .  S
Cd994      O1007   2.053   1_554  S
Cd994       O996   1.931       .  S
O995       C1005   1.283       .  A
O996       Cd997   1.946   1_554  S
Cd997       O999   2.141       .  S
O998       C1005   1.267       .  A
C1000      O1004   1.273       .  A
C1000      C1425   1.417       .  S
C1001      C1374   1.441       .  S
C1003      C1344   1.434       .  S
C1005      C1334   1.430       .  S
C1006      O1007   1.274       .  A
C1006      C1335   1.429       .  S
O1008      C1024   1.266       .  A
O1008     Zn1014   1.950       .  S
C1009      O1025   1.259       .  A
C1009      O1022   1.286       .  A
C1009      C1454   1.435       .  S
O1010      C1023   1.273       .  A
O1010     Cd1017   2.049       .  S
O1011      C1029   1.276       .  A
O1011     Cd1020   2.080       .  S
O1012      C1026   1.267       .  A
O1012     Cd1016   2.022       .  S
O1013      C1024   1.286       .  A
O1013     Cd1016   2.129       .  S
Zn1014     O1025   1.908       .  S
Zn1014     O1027   1.982       .  S
Zn1014     O1019   1.856       .  S
O1015      C1026   1.290       .  A
O1015     Cd1020   2.144       .  S
Cd1016     O1018   2.111       .  S
Cd1016     O1019   1.948       .  S
Cd1017     O1021   2.018       .  S
Cd1017     O1030   2.052       .  S
Cd1017     O1019   1.936       .  S
O1018      C1028   1.285       .  A
O1019     Cd1020   1.951       .  S
Cd1020     O1022   2.147       .  S
O1021      C1028   1.268       .  A
C1023      O1027   1.272       .  A
C1023      C1449   1.416       .  S
C1024      C1415   1.437       .  S
C1026      C1430   1.441       .  S
C1028      C1329   1.432       .  S
C1029      O1030   1.272       .  A
C1029      C1331   1.431       .  S
O1031      C1047   1.260       .  A
O1031     Zn1037   1.913   1_655  S
C1032      O1048   1.266       .  A
C1032      O1045   1.288       .  A
C1032      C1482   1.442       .  S
O1033      C1046   1.276       .  A
O1033     Cd1040   2.064       .  S
O1034      C1052   1.287       .  A
O1034     Cd1043   2.119       .  S
O1035      C1049   1.289       .  A
O1035     Cd1039   2.131       .  S
O1036      C1047   1.285       .  A
O1036     Cd1039   2.140       .  S
Zn1037     O1048   1.952       .  S
Zn1037     O1050   1.971       .  S
Zn1037     O1042   1.843       .  S
O1038      C1049   1.268   1_455  A
O1038     Cd1043   2.024       .  S
Cd1039     O1041   2.066       .  S
Cd1039     O1042   1.942   1_655  S
Cd1040     O1044   2.058   1_455  S
Cd1040     O1053   2.019       .  S
Cd1040     O1042   1.928       .  S
O1041      C1051   1.274       .  A
O1042     Cd1043   1.936       .  S
Cd1043     O1045   2.138       .  S
O1044      C1051   1.274       .  A
C1046      O1050   1.272       .  A
C1046      C1342   1.417       .  S
C1047      C1338   1.434       .  S
C1049      C1452   1.437       .  S
C1051      C1328   1.429       .  S
C1052      O1053   1.268       .  A
C1052      C1325   1.433       .  S
C1054      C1055   1.540       .  S
C1054      C1060   1.527       .  S
C1054      C1058   1.519       .  S
C1054      C1351   1.461       .  S
C1055      H1062   1.085       .  S
C1055      C1056   1.381       .  D
C1056      C1057   1.567       .  S
C1056      C1147   1.510       .  S
C1057      C1061   1.535       .  S
C1057      C1059   1.549       .  S
C1057      H1063   1.111       .  S
C1058      H1064   1.089       .  S
C1058      C1059   1.352       .  D
C1059      C1330   1.443       .  S
C1060      H1065   1.088       .  S
C1060      C1061   1.353       .  D
C1061      C1327   1.433       .  S
C1066      C1067   1.519       .  S
C1066      C1072   1.526       .  S
C1066      C1070   1.543       .  S
C1066      C1420   1.462       .  S
C1067      H1074   1.089       .  S
C1067      C1068   1.352       .  D
C1068      C1069   1.550       .  S
C1068      C1326   1.443       .  S
C1069      C1073   1.536       .  S
C1069      C1071   1.564       .  S
C1069      H1075   1.111       .  S
C1070      H1076   1.086       .  S
C1070      C1071   1.379       .  D
C1071      C1144   1.502       .  S
C1072      H1077   1.088       .  S
C1072      C1073   1.354       .  D
C1073      C1336   1.434       .  S
C1078      C1079   1.516       .  S
C1078      C1084   1.531       .  S
C1078      C1082   1.546       .  S
C1078      C1457   1.469       .  S
C1079      H1086   1.089       .  S
C1079      C1080   1.351       .  D
C1080      C1081   1.554       .  S
C1080      C1584   1.448       .  S
C1081      C1085   1.535       .  S
C1081      C1083   1.571       .  S
C1081      H1087   1.111       .  S
C1082      H1088   1.085       .  S
C1082      C1083   1.382       .  D
C1083      C1127   1.514       .  S
C1084      H1089   1.088       .  S
C1084      C1085   1.355       .  D
C1085      C1332   1.437       .  S
C1090      C1091   1.547       .  S
C1090      C1096   1.529       .  S
C1090      C1094   1.520       .  S
C1090      C1518   1.468       .  S
C1091      H1098   1.085   1_455  S
C1091      C1092   1.385       .  D
C1092      C1093   1.563       .  S
C1092      C1146   1.512       .  S
C1093      C1097   1.526       .  S
C1093      C1095   1.548       .  S
C1093      H1099   1.111       .  S
C1094      H1100   1.089       .  S
C1094      C1095   1.353       .  D
C1095      C1333   1.443       .  S
C1096      H1101   1.088       .  S
C1096      C1097   1.351       .  D
C1097      C1576   1.426       .  S
C1102      C1103   1.544       .  S
C1102      C1108   1.529       .  S
C1102      C1106   1.521       .  S
C1102      C1529   1.465       .  S
C1103      H1110   1.085       .  S
C1103      C1104   1.382       .  D
C1104      C1105   1.561       .  S
C1104      C1141   1.508       .  S
C1105      C1109   1.523       .  S
C1105      C1107   1.548       .  S
C1105      H1111   1.111       .  S
C1106      H1112   1.089       .  S
C1106      C1107   1.354       .  D
C1107      C1359   1.445       .  S
C1108      H1113   1.088       .  S
C1108      C1109   1.353       .  D
C1109      C1588   1.422       .  S
C1114      C1115   1.519       .  S
C1114      C1120   1.527       .  S
C1114      C1118   1.544       .  S
C1114      C1382   1.468       .  S
C1115      H1122   1.089       .  S
C1115      C1116   1.353       .  D
C1116      C1117   1.555       .  S
C1116      C1569   1.451       .  S
C1117      C1121   1.535       .  S
C1117      C1119   1.570       .  S
C1117      H1123   1.111       .  S
C1118      H1124   1.085       .  S
C1118      C1119   1.381       .  D
C1119      C1142   1.511       .  S
C1120      H1125   1.088       .  S
C1120      C1121   1.354       .  D
C1121      C1364   1.434       .  S
O1126      C1142   1.284       .  A
O1126     Zn1132   2.102   1_455  S
C1127      O1143   1.287       .  A
C1127      O1140   1.283       .  A
O1128      C1141   1.284       .  A
O1128     Cd1135   2.130       .  S
O1129      C1147   1.280       .  A
O1129     Cd1138   2.118       .  S
O1130      C1144   1.281       .  A
O1130     Cd1134   2.114   1_556  S
O1131      C1142   1.283       .  A
O1131     Cd1134   2.136       .  S
Zn1132     O1143   2.124   1_554  S
Zn1132     O1145   2.073       .  S
Zn1132     O1137   2.001   1_554  S
O1133      C1144   1.285       .  A
O1133     Cd1138   2.142   1_455  S
Cd1134     O1136   2.114       .  S
Cd1134     O1137   2.041   1_454  S
Cd1135     O1139   2.139       .  S
Cd1135     O1148   2.135   1_554  S
Cd1135     O1137   2.050   1_554  S
O1136      C1146   1.280       .  A
O1137     Cd1138   2.049       .  S
Cd1138     O1140   2.131       .  S
O1139      C1146   1.284   1_655  A
C1141      O1145   1.281       .  A
C1147      O1148   1.285       .  A
O1149      C1165   1.261       .  A
O1149     Zn1155   1.923       .  S
C1150      O1166   1.267       .  A
C1150      O1163   1.287       .  A
C1150      C1444   1.437       .  S
O1151      C1164   1.275       .  A
O1151     Cd1158   2.061       .  S
O1152      C1170   1.284       .  A
O1152     Cd1161   2.105       .  S
O1153      C1167   1.288       .  A
O1153     Cd1157   2.132       .  S
O1154      C1165   1.285       .  A
O1154     Cd1157   2.136       .  S
Zn1155     O1166   1.956       .  S
Zn1155     O1168   1.977       .  S
Zn1155     O1160   1.847       .  S
O1156      C1167   1.265       .  A
O1156     Cd1161   2.013       .  S
Cd1157     O1159   2.065       .  S
Cd1157     O1160   1.946       .  S
Cd1158     O1162   2.053       .  S
Cd1158     O1171   2.023       .  S
Cd1158     O1160   1.929       .  S
O1159      C1169   1.274       .  A
O1160     Cd1161   1.940       .  S
Cd1161     O1163   2.125       .  S
O1162      C1169   1.274       .  A
C1164      O1168   1.272       .  A
C1164      C1418   1.418       .  S
C1165      C1410   1.436       .  S
C1167      C1376   1.434       .  S
C1169      C1323   1.427       .  S
C1170      O1171   1.268       .  A
C1170      C1322   1.433       .  S
O1172      C1188   1.267       .  A
O1172     Zn1178   1.949       .  S
C1173      O1189   1.261       .  A
C1173      O1186   1.286       .  A
C1173      C1414   1.438       .  S
O1174      C1187   1.275       .  A
O1174     Cd1181   2.058       .  S
O1175      C1193   1.272       .  A
O1175     Cd1184   2.053       .  S
O1176      C1190   1.268       .  A
O1176     Cd1180   2.021       .  S
O1177      C1188   1.288       .  A
O1177     Cd1180   2.131       .  S
Zn1178     O1189   1.920       .  S
Zn1178     O1191   1.972       .  S
Zn1178     O1183   1.840       .  S
O1179      C1190   1.290       .  A
O1179     Cd1184   2.130       .  S
Cd1180     O1182   2.120       .  S
Cd1180     O1183   1.933       .  S
Cd1181     O1185   2.014       .  S
Cd1181     O1194   2.057       .  S
Cd1181     O1183   1.928       .  S
O1182      C1192   1.286       .  A
O1183     Cd1184   1.937       .  S
Cd1184     O1186   2.144       .  S
O1185      C1192   1.267       .  A
C1187      O1191   1.272       .  A
C1187      C1407   1.416       .  S
C1188      C1442   1.436       .  S
C1190      C1372   1.435       .  S
C1192      C1317   1.435       .  S
C1193      O1194   1.275       .  A
C1193      C1319   1.425       .  S
O1195      C1211   1.261       .  A
O1195     Zn1201   1.922   1_565  S
C1196      O1212   1.267       .  A
C1196      O1209   1.287       .  A
C1196      C1340   1.436       .  S
O1197      C1210   1.276       .  A
O1197     Cd1204   2.058       .  S
O1198      C1216   1.286       .  A
O1198     Cd1207   2.116       .  S
O1199      C1213   1.289       .  A
O1199     Cd1203   2.130       .  S
O1200      C1211   1.285       .  A
O1200     Cd1203   2.140       .  S
Zn1201     O1212   1.954       .  S
Zn1201     O1214   1.975       .  S
Zn1201     O1206   1.846       .  S
O1202      C1213   1.266   1_545  A
O1202     Cd1207   2.012       .  S
Cd1203     O1205   2.060       .  S
Cd1203     O1206   1.940   1_565  S
Cd1204     O1208   2.057   1_545  S
Cd1204     O1217   2.020       .  S
Cd1204     O1206   1.927       .  S
O1205      C1215   1.273       .  A
O1206     Cd1207   1.938       .  S
Cd1207     O1209   2.127       .  S
O1208      C1215   1.274       .  A
C1210      O1214   1.272       .  A
C1210      C1368   1.416       .  S
C1211      C1378   1.437       .  S
C1213      C1488   1.433       .  S
C1215      C1316   1.427       .  S
C1216      O1217   1.268       .  A
C1216      C1313   1.436       .  S
C1218      C1219   1.540       .  S
C1218      C1224   1.528       .  S
C1218      C1222   1.518       .  S
C1218      C1346   1.462       .  S
C1219      H1226   1.086       .  S
C1219      C1220   1.379       .  D
C1220      C1221   1.569       .  S
C1220      C1308   1.506       .  S
C1221      C1225   1.536       .  S
C1221      C1223   1.554       .  S
C1221      H1227   1.111       .  S
C1222      H1228   1.089       .  S
C1222      C1223   1.353       .  D
C1223      C1318   1.446       .  S
C1224      H1229   1.089       .  S
C1224      C1225   1.352       .  D
C1225      C1550   1.437       .  S
C1230      C1231   1.547       .  S
C1230      C1236   1.525       .  S
C1230      C1234   1.517       .  S
C1230      C1402   1.468       .  S
C1231      H1238   1.085       .  S
C1231      C1232   1.382       .  D
C1232      C1233   1.569       .  S
C1232      C1306   1.514       .  S
C1233      C1237   1.536       .  S
C1233      C1235   1.556       .  S
C1233      H1239   1.111       .  S
C1234      H1240   1.089       .  S
C1234      C1235   1.351       .  D
C1235      C1498   1.451       .  S
C1236      H1241   1.088       .  S
C1236      C1237   1.354       .  D
C1237      C1315   1.432       .  S
C1242      C1243   1.521       .  S
C1242      C1248   1.524       .  S
C1242      C1246   1.544       .  S
C1242      C1465   1.463       .  S
C1243      H1250   1.089       .  S
C1243      C1244   1.354       .  D
C1244      C1245   1.552       .  S
C1244      C1314   1.448       .  S
C1245      C1249   1.533       .  S
C1245      C1247   1.568       .  S
C1245      H1251   1.111       .  S
C1246      H1252   1.085       .  S
C1246      C1247   1.382       .  D
C1247      C1310   1.513       .  S
C1248      H1253   1.089       .  S
C1248      C1249   1.352       .  D
C1249      C1320   1.429       .  S
C1254      C1255   1.546       .  S
C1254      C1260   1.525       .  S
C1254      C1258   1.518       .  S
C1254      C1589   1.464       .  S
C1255      H1262   1.085       .  S
C1255      C1256   1.381       .  D
C1256      C1257   1.567       .  S
C1256      C1291   1.510       .  S
C1257      C1261   1.534       .  S
C1257      C1259   1.554       .  S
C1257      H1263   1.111       .  S
C1258      H1264   1.089       .  S
C1258      C1259   1.353       .  D
C1259      C1395   1.447       .  S
C1260      H1265   1.089       .  S
C1260      C1261   1.352       .  D
C1261      C1324   1.431       .  S
C1266      C1267   1.522       .  S
C1266      C1272   1.529       .  S
C1266      C1270   1.547       .  S
C1266      C1505   1.468       .  S
C1267      H1274   1.089       .  S
C1267      C1268   1.354       .  D
C1268      C1269   1.547       .  S
C1268      C1321   1.446       .  S
C1269      C1273   1.522       .  S
C1269      C1271   1.560       .  S
C1269      H1275   1.111       .  S
C1270      H1276   1.085   1_565  S
C1270      C1271   1.384       .  D
C1271      C1305   1.511       .  S
C1272      H1277   1.088       .  S
C1272      C1273   1.353       .  D
C1273      C1504   1.420       .  S
C1278      C1279   1.518       .  S
C1278      C1284   1.527       .  S
C1278      C1282   1.539       .  S
C1278      C1554   1.461       .  S
C1279      H1286   1.089       .  S
C1279      C1280   1.352       .  D
C1280      C1281   1.551       .  S
C1280      C1546   1.444       .  S
C1281      C1285   1.536       .  S
C1281      C1283   1.570       .  S
C1281      H1287   1.111       .  S
C1282      H1288   1.085       .  S
C1282      C1283   1.381       .  D
C1283      C1311   1.511       .  S
C1284      H1289   1.088       .  S
C1284      C1285   1.353       .  D
C1285      C1399   1.434       .  S
O1290      C1306   1.287       .  A
O1290     Zn1296   2.125       .  S
C1291      O1307   1.284       .  A
C1291      O1304   1.283       .  A
O1292      C1305   1.284   1_545  A
O1292     Cd1299   2.136       .  S
O1293      C1311   1.280       .  A
O1293     Cd1302   2.116       .  S
O1294      C1308   1.284       .  A
O1294     Cd1298   2.138       .  S
O1295      C1306   1.283       .  A
O1295     Cd1298   2.129   1_565  S
Zn1296     O1307   2.101       .  S
Zn1296     O1309   2.078       .  S
Zn1296     O1301   2.001   1_565  S
O1297      C1308   1.282       .  A
O1297     Cd1302   2.127       .  S
Cd1298     O1300   2.113       .  S
Cd1298     O1301   2.047       .  S
Cd1299     O1303   2.150       .  S
Cd1299     O1312   2.137       .  S
Cd1299     O1301   2.051       .  S
O1300      C1310   1.280       .  A
O1301     Cd1302   2.048       .  S
Cd1302     O1304   2.136   1_545  S
O1303      C1310   1.287       .  A
C1305      O1309   1.282       .  A
C1311      O1312   1.285       .  A
C1313      C1314   1.210       .  T
C1315      C1316   1.201       .  T
C1317      C1318   1.209       .  T
C1319      C1320   1.199       .  T
C1321      C1322   1.208       .  T
C1323      C1324   1.201       .  T
C1325      C1326   1.208       .  T
C1327      C1328   1.202       .  T
C1329      C1330   1.207       .  T
C1331      C1332   1.204       .  T
C1333      C1334   1.206       .  T
C1335      C1336   1.202       .  T
C1337      C1338   1.209       .  T
C1339      C1340   1.207       .  T
C1341      C1342   1.195       .  T
C1343      C1344   1.208       .  T
C1345      C1346   1.207       .  T
C1347      C1348   1.207       .  T
C1349      C1350   1.199       .  T
C1351      C1352   1.206       .  T
C1353      C1354   1.211       .  T
C1355      C1356   1.195       .  T
C1357      C1358   1.210       .  T
C1359      C1360   1.207       .  T
C1361      C1362   1.198       .  T
C1363      C1364   1.202       .  T
C1365      C1366   1.200       .  T
C1367      C1368   1.194       .  T
C1369      C1370   1.208       .  T
C1371      C1372   1.207       .  T
C1373      C1374   1.210       .  T
C1375      C1376   1.207       .  T
C1377      C1378   1.212       .  T
C1379      C1380   1.206       .  T
C1381      C1382   1.210       .  T
C1383      C1384   1.207       .  T
C1385      C1386   1.213       .  T
C1387      C1388   1.202       .  T
C1389      C1390   1.196       .  T
C1391      C1392   1.211       .  T
C1393      C1394   1.212       .  T
C1395      C1396   1.210       .  T
C1397      C1398   1.195       .  T
C1399      C1400   1.202       .  T
C1401      C1402   1.210       .  T
C1403      C1404   1.208       .  T
C1405      C1406   1.199       .  T
C1407      C1408   1.194       .  T
C1409      C1410   1.210       .  T
C1411      C1412   1.206       .  T
C1413      C1414   1.213       .  T
C1415      C1416   1.208       .  T
C1417      C1418   1.196       .  T
C1419      C1420   1.207       .  T
C1421      C1422   1.211       .  T
C1423      C1424   1.196       .  T
C1425      C1426   1.195       .  T
C1427      C1428   1.213       .  T
C1429      C1430   1.211       .  T
C1431      C1432   1.193       .  T
C1433      C1434   1.205       .  T
C1435      C1436   1.210       .  T
C1437      C1438   1.211       .  T
C1439      C1440   1.206       .  T
C1441      C1442   1.207       .  T
C1443      C1444   1.208       .  T
C1445      C1446   1.206       .  T
C1447      C1448   1.209       .  T
C1449      C1450   1.194       .  T
C1451      C1452   1.209       .  T
C1453      C1454   1.211       .  T
C1455      C1456   1.209       .  T
C1457      C1458   1.211       .  T
C1459      C1460   1.209       .  T
C1461      C1462   1.209       .  T
C1463      C1464   1.195       .  T
C1465      C1466   1.207       .  T
C1467      C1468   1.206       .  T
C1469      C1470   1.209       .  T
C1471      C1472   1.203       .  T
C1473      C1474   1.194       .  T
C1475      C1476   1.209       .  T
C1477      C1478   1.202       .  T
C1479      C1480   1.195       .  T
C1481      C1482   1.212       .  T
C1483      C1484   1.208       .  T
C1485      C1486   1.209       .  T
C1487      C1488   1.206       .  T
C1489      C1490   1.208       .  T
C1491      C1492   1.211       .  T
C1493      C1494   1.209       .  T
C1495      C1496   1.208       .  T
C1497      C1498   1.213       .  T
C1499      C1500   1.208       .  T
C1501      C1502   1.203       .  T
C1503      C1504   1.193       .  T
C1505      C1506   1.210       .  T
C1507      C1508   1.208       .  T
C1509      C1510   1.209       .  T
C1511      C1512   1.208       .  T
C1513      C1514   1.195       .  T
C1515      C1516   1.200       .  T
C1517      C1518   1.211       .  T
C1519      C1520   1.208       .  T
C1521      C1522   1.208       .  T
C1523      C1524   1.208       .  T
C1525      C1526   1.204       .  T
C1527      C1528   1.197       .  T
C1529      C1530   1.208       .  T
C1531      C1532   1.212       .  T
C1533      C1534   1.211       .  T
C1535      C1536   1.207       .  T
C1537      C1538   1.198       .  T
C1539      C1540   1.202       .  T
C1541      C1542   1.208       .  T
C1543      C1544   1.212       .  T
C1545      C1546   1.208       .  T
C1547      C1548   1.210       .  T
C1549      C1550   1.204       .  T
C1551      C1552   1.197       .  T
C1553      C1554   1.206       .  T
C1555      C1556   1.208       .  T
C1557      C1558   1.212       .  T
C1559      C1560   1.206       .  T
C1561      C1562   1.200       .  T
C1563      C1564   1.193       .  T
C1565      C1566   1.208       .  T
C1567      C1568   1.207       .  T
C1569      C1570   1.213       .  T
C1571      C1572   1.206       .  T
C1573      C1574   1.202       .  T
C1575      C1576   1.197       .  T
C1577      C1578   1.206       .  T
C1579      C1580   1.208       .  T
C1581      C1582   1.208       .  T
C1583      C1584   1.211       .  T
C1585      C1586   1.197       .  T
C1587      C1588   1.194       .  T
C1589      C1590   1.208       .  T
C1591      C1592   1.210       .  T
C1593      C1594   1.212       .  T
C1595      C1596   1.208       .  T
C1597      C1598   1.195       .  T
C1599      C1600   1.203       .  T
