geometry optimzed in LAMMPS
_audit_creation_date              2020-11-30 
_audit_creation_method            'lammps2cif' 
_symmetry_space_group_name_H-M    'P1' 
_symmetry_Int_Tables_number       1 
_symmetry_cell_setting            triclinic 
loop_ 
_symmetry_equiv_pos_as_xyz 
  x,y,z 
_cell_length_a                    29.74020939 
_cell_length_b                    29.91460231563772 
_cell_length_c                    29.920586959486478 
_cell_angle_alpha                 89.89603778028824 
_cell_angle_beta                  89.80143463317708 
_cell_angle_gamma                 89.98294277250693 
loop_ 
_atom_site_label 
_atom_site_type_symbol 
_atom_site_fract_x 
_atom_site_fract_y 
_atom_site_fract_z 
_atom_site_charge 
O1          O  0.44943928  0.41889929  0.54350055    -0.77700
C2          C  0.54693222  0.41047174  0.43511396     0.83300
O3          O  0.58097227  0.50187030  0.59280557    -0.78900
O4          O  0.57835169  0.54918955  0.43773607    -0.80300
O5          O  0.41584631  0.54591818  0.45340734    -0.80100
O6          O  0.40251559  0.47677255  0.54012831    -0.78800
Zn7        Zn  0.51051819  0.44170324  0.52551739     1.55700
O8          O  0.47229992  0.53835167  0.40521837    -0.80200
Cd9        Cd  0.44275664  0.52635542  0.51385746     1.59700
Cd10       Cd  0.54702321  0.54348046  0.54663433     1.59600
O11         O  0.43850720  0.58114414  0.55542866    -0.80200
O12         O  0.50623509  0.50489783  0.50866874    -1.90700
Cd13       Cd  0.52237365  0.51009967  0.44443843     1.59900
O14         O  0.50800090  0.59167128  0.58168359    -0.80100
O15         O  0.54030420  0.44922317  0.41872238    -0.78800
C16         C  0.57722283  0.46003877  0.60131070     0.83800
C17         C  0.41056731  0.43599387  0.54935396     0.83400
O18         O  0.53728686  0.40205919  0.47587073    -0.77700
C19         C  0.43208339  0.55004906  0.41419959     0.84200
O20         O  0.55077626  0.43492553  0.57927914    -0.77800
C21         C  0.46616708  0.60198842  0.58019753     0.84400
C22         C  0.60299809  0.57265622  0.46321733     0.84700
O23         O  0.59536679  0.57556195  0.50530674    -0.80200
O24         O  0.06048059  0.42899610  0.46962135    -0.77700
C25         C  0.96577304  0.41728040  0.58002263     0.83300
O26         O  0.92270814  0.50741803  0.42535967    -0.78900
O27         O  0.92723280  0.55675003  0.57668065    -0.80300
O28         O  0.08917720  0.55561560  0.56226971    -0.80100
O29         O  0.10792316  0.48571255  0.47619688    -0.78800
Zn30       Zn  0.99964779  0.45041862  0.48988144     1.55700
O31         O  0.03162801  0.54686120  0.60931428    -0.80200
Cd32       Cd  0.06449534  0.53403526  0.50156927     1.59700
Cd33       Cd  0.95842282  0.55014195  0.46876209     1.59600
O34         O  0.06603115  0.58706327  0.45823428    -0.80200
O35         O  0.00097654  0.51284062  0.50665752    -1.90700
Cd36       Cd  0.98304839  0.51763536  0.57031307     1.59900
O37         O  0.99659134  0.59612033  0.43079737    -0.80100
O38         O  0.96734559  0.45636240  0.59666838    -0.78800
C39         C  0.92848356  0.46572697  0.41765560     0.83800
C40         C  0.09978600  0.44542028  0.46521980     0.83400
O41         O  0.97752647  0.41008882  0.53972079    -0.77700
C42         C  0.07159412  0.55949190  0.60095132     0.84200
O43         O  0.95717622  0.44260332  0.43909575    -0.77800
C44         C  0.03828557  0.60661855  0.43242980     0.84400
C45         C  0.90391445  0.58200592  0.55156620     0.84700
O46         O  0.91187688  0.58526100  0.50958987    -0.80200
O47         O  0.45431148  0.58899085  0.97493415    -0.77700
C48         C  0.55217839  0.59244438  0.08458750     0.83300
O49         O  0.58687167  0.50893159  0.92204238    -0.78900
O50         O  0.58561948  0.45261209  0.07383533    -0.80300
O51         O  0.42299599  0.46145184  0.06434683    -0.80100
O52         O  0.40944848  0.52939363  0.97570068    -0.78800
Zn53       Zn  0.51530105  0.56528323  0.99309599     1.55700
O54         O  0.48208931  0.46500400  0.10962733    -0.80200
Cd55       Cd  0.44944812  0.48005275  0.00286953     1.59700
Cd56       Cd  0.55317350  0.46475638  0.96632076     1.59600
O57         O  0.44532382  0.42564432  0.96069364    -0.80200
O58         O  0.51281563  0.50143839  0.00702750    -1.90700
Cd59       Cd  0.53117346  0.49344231  0.07024093     1.59900
O60         O  0.51336830  0.41926129  0.92924046    -0.80100
O61         O  0.54980536  0.55254299  0.09902032    -0.78800
C62         C  0.58262109  0.55115826  0.91604872     0.83800
C63         C  0.41641656  0.57062609  0.96747877     0.83400
O64         O  0.53992479  0.60228503  0.04492040    -0.77700
C65         C  0.44104144  0.45571182  0.10249510     0.84200
O66         O  0.55632003  0.57475561  0.94008432    -0.77800
C67         C  0.47209242  0.40740728  0.93283894     0.84400
C68         C  0.60888628  0.42927619  0.04691542     0.84700
O69         O  0.60088169  0.42854993  0.00486256    -0.80200
O70         O  0.48146442  0.04655137  0.60462028    -0.77700
C71         C  0.55193995  0.92025204  0.57862500     0.83300
O72         O  0.59756923  0.08517819  0.49750553    -0.78900
O73         O  0.55299232  0.93943810  0.43268304    -0.80300
O74         O  0.40523416  0.98249952  0.47130398    -0.80100
O75         O  0.42229170  0.05079239  0.55972528    -0.78800
Zn76       Zn  0.52969980  0.01958443  0.56479812     1.55700
O77         O  0.45022106  0.92309661  0.46962760    -0.80200
Cd78       Cd  0.44645909  0.03166990  0.49827868     1.59700
Cd79       Cd  0.54910831  0.04912196  0.46095220     1.59600
O80         O  0.44145450  0.08644343  0.45714313    -0.80200
O81         O  0.51029789  0.01244140  0.50329389    -1.90700
Cd82       Cd  0.51264615  0.94750262  0.48797921     1.59900
O83         O  0.50915561  0.09511603  0.42562380    -0.80100
O84         O  0.53907828  0.90880007  0.53966269    -0.78800
C85         C  0.60593971  0.08403222  0.53938686     0.83800
C86         C  0.44038793  0.05644221  0.59785475     0.83400
O87         O  0.54931373  0.96076446  0.59143348    -0.77700
C88         C  0.41215784  0.94137263  0.46255956     0.84200
O89         O  0.58289575  0.06026147  0.56634557    -0.77800
C90         C  0.46782528  0.10611543  0.42993508     0.84400
C91         C  0.57759342  0.96429854  0.40809839     0.84700
O92         O  0.58115945  0.00641228  0.41477540    -0.80200
O93         O  0.06140086  0.59457624  0.04275134    -0.77700
C94         C  0.96526597  0.60122073  0.92981506     0.83300
O95         O  0.92831965  0.50945791  0.08803559    -0.78900
O96         O  0.93053859  0.46125078  0.93434005    -0.80300
O97         O  0.09428552  0.46746164  0.95038513    -0.80100
O98         O  0.11006595  0.53869695  0.03834905    -0.78800
Zn99       Zn  0.00132434  0.57026850  0.02079154     1.55700
O100        O  0.03636537  0.47145306  0.90337374    -0.80200
Cd101      Cd  0.06866799  0.48956124  0.01063502     1.59700
Cd102      Cd  0.96344386  0.46842383  0.04259724     1.59600
O103        O  0.07179447  0.43620527  0.05326878    -0.80200
O104        O  0.00431134  0.50774831  0.00439114    -1.90700
Cd105      Cd  0.98625148  0.50163417  0.94046577     1.59900
O106        O  0.00271153  0.42246636  0.07944531    -0.80100
O107        O  0.96911434  0.56249129  0.91261572    -0.78800
C108        C  0.93271567  0.55133776  0.09548071     0.83800
C109        C  0.10072452  0.57877217  0.04938868     0.83400
O110        O  0.97641289  0.60860123  0.97030400    -0.77700
C111        C  0.07672368  0.46037440  0.91223906     0.84200
O112        O  0.95915952  0.57568322  0.07238096    -0.77800
C113        C  0.04494524  0.41422680  0.07818623     0.84400
C114        C  0.90840350  0.43548501  0.96020974     0.84700
O115        O  0.91715418  0.43275231  0.00204650    -0.80200
O116        O  0.04135696  0.03662243  0.40590935    -0.77700
C117        C  0.96638723  0.91060356  0.43798511     0.83300
O118        O  0.92350698  0.07808445  0.50567775    -0.78900
O119        O  0.96668451  0.93883460  0.58330259    -0.80300
O120        O  0.11640282  0.97033430  0.53969321    -0.80100
O121        O  0.10155729  0.04096549  0.44966742    -0.78800
Zn122      Zn  0.99307041  0.00896780  0.44493396     1.55700
O123        O  0.06765483  0.91441827  0.54614668    -0.80200
Cd124      Cd  0.07664894  0.02098049  0.51141626     1.59700
Cd125      Cd  0.97256379  0.04533783  0.54468717     1.59600
O126        O  0.08157865  0.07592755  0.55230203    -0.80200
O127        O  0.01170677  0.00462109  0.50673917    -1.90700
Cd128      Cd  0.00641006  0.94126627  0.52704930     1.59900
O129        O  0.01258067  0.09267456  0.57708929    -0.80100
O130        O  0.97640044  0.90164537  0.47843837    -0.78800
C131        C  0.91492598  0.07359923  0.46408688     0.83800
C132        C  0.08228416  0.04748352  0.41216975     0.83400
O133        O  0.97384097  0.94914345  0.42129065    -0.77700
C134        C  0.10709839  0.93023522  0.55122028     0.84200
O135        O  0.93870028  0.04820676  0.43941160    -0.77800
C136        C  0.05491138  0.09983570  0.57562485     0.84400
C137        C  0.94225627  0.96659752  0.60457364     0.84700
O138        O  0.93952989  0.00777285  0.59360725    -0.80200
O139        O  0.46960108  0.97614201  0.90989436    -0.77700
C140        C  0.54926574  0.10128691  0.93476671     0.83300
O141        O  0.58999155  0.93495807  0.00941594    -0.78900
O142        O  0.55418180  0.07788018  0.08213836    -0.80300
O143        O  0.40367416  0.04294560  0.04646095    -0.80100
O144        O  0.41292222  0.97327279  0.95816194    -0.78800
Zn145      Zn  0.52022567  0.00313915  0.94722628     1.55700
O146        O  0.45104469  0.10066045  0.04753175    -0.80200
Cd147      Cd  0.44086641  0.99187104  0.01799313     1.59700
Cd148      Cd  0.54336605  0.96937348  0.04919082     1.59600
O149        O  0.43491835  0.93621877  0.05858056    -0.80200
O150        O  0.50492162  0.00939076  0.01005242    -1.90700
Cd151      Cd  0.51223417  0.07393403  0.02708449     1.59900
O152        O  0.50396895  0.92221758  0.08395474    -0.80100
O153        O  0.54049459  0.11240606  0.97507587    -0.78800
C154        C  0.59697536  0.93767527  0.96735079     0.83800
C155        C  0.42890687  0.96632022  0.91922562     0.83400
O156        O  0.54090659  0.06183716  0.92095365    -0.77700
C157        C  0.41244868  0.08364033  0.05547775     0.84200
O158        O  0.57305715  0.96230751  0.94213542    -0.77800
C159        C  0.46194704  0.91343955  0.08242465     0.84400
C160        C  0.57766875  0.05012601  0.10455336     0.84700
O161        O  0.57826561  0.00831077  0.09582337    -0.80200
O162        O  0.04227646  0.97666302  0.11101960    -0.77700
C163        C  0.97037179  0.10160013  0.08341573     0.83300
O164        O  0.91955140  0.93772732  0.01303659    -0.78900
O165        O  0.96506332  0.07608295  0.93781523    -0.80300
O166        O  0.11374802  0.03705680  0.97336376    -0.80100
O167        O  0.10154573  0.97254705  0.06573828    -0.78800
Zn168      Zn  0.99248186  0.00261365  0.07347576     1.55700
O169        O  0.06758696  0.09536370  0.97143854    -0.80200
Cd170      Cd  0.07395544  0.98887344  0.00458070     1.59700
Cd171      Cd  0.96923849  0.96833914  0.97248267     1.59600
O172        O  0.07703109  0.93228459  0.96622388    -0.80200
O173        O  0.00967024  0.00702861  0.01103275    -1.90700
Cd174      Cd  0.00611636  0.07082562  0.99249786     1.59900
O175        O  0.00798780  0.91853421  0.94035464    -0.80100
O176        O  0.98038330  0.11091534  0.04298867    -0.78800
C177        C  0.91255977  0.94041496  0.05521469     0.83800
C178        C  0.08352741  0.96736215  0.10408002     0.83400
O179        O  0.97509920  0.06223507  0.09886934    -0.77700
C180        C  0.10585413  0.07782490  0.96368518     0.84200
O181        O  0.93804564  0.96356791  0.08022610    -0.77800
C182        C  0.04993779  0.90921382  0.94282140     0.84400
C183        C  0.94121595  0.04979635  0.91432274     0.84700
O184        O  0.93797932  0.00805001  0.92322171    -0.80200
O185        O  0.79300189  0.65569027  0.22745532    -0.77700
C186        C  0.71611360  0.68404844  0.35298216     0.83300
O187        O  0.67075514  0.75106131  0.18325368    -0.78900
O188        O  0.70682254  0.82881042  0.32371100    -0.80300
O189        O  0.85858934  0.79346385  0.28713136    -0.80100
O190        O  0.84919843  0.70377752  0.21862887    -0.78800
Zn191      Zn  0.74219104  0.69295587  0.25374996     1.55700
O192        O  0.81157568  0.79736110  0.34525072    -0.80200
Cd193      Cd  0.82064233  0.76380674  0.23736955     1.59700
Cd194      Cd  0.71633487  0.79300588  0.21630810     1.59600
O195        O  0.82478956  0.80501781  0.18224381    -0.80200
O196        O  0.75678296  0.75599643  0.25660598    -1.90700
Cd197      Cd  0.75054906  0.77532262  0.32041436     1.59900
O198        O  0.75485695  0.82872628  0.16887293    -0.80100
O199        O  0.72477529  0.72486735  0.36166456    -0.78800
C200        C  0.66480114  0.70899259  0.18777668     0.83800
C201        C  0.83313177  0.66448216  0.21509553     0.83400
O202        O  0.72309665  0.66827022  0.31397302    -0.77700
C203        C  0.85005632  0.80411358  0.32752053     0.84200
O204        O  0.68944237  0.68558153  0.21349984    -0.77800
C205        C  0.79700610  0.82864702  0.16019286     0.84400
C206        C  0.68125240  0.84919165  0.29631005     0.84700
O207        O  0.67960194  0.83913682  0.25483042    -0.80200
O208        O  0.82128486  0.29193485  0.66688215    -0.77700
C209        C  0.72381470  0.18259567  0.65286793     0.83300
O210        O  0.68606769  0.33615791  0.74808162    -0.78900
O211        O  0.69028470  0.18044234  0.79361539    -0.80300
O212        O  0.85029259  0.19639847  0.79317945    -0.80100
O213        O  0.86598929  0.28701803  0.72635243    -0.78800
Zn214      Zn  0.76003638  0.27167349  0.68814189     1.55700
O215        O  0.79542931  0.14739263  0.78151184    -0.80200
Cd216      Cd  0.82463792  0.25757323  0.77351552     1.59700
Cd217      Cd  0.72017869  0.28978328  0.78909257     1.59600
O218        O  0.82711185  0.29873322  0.82856215    -0.80200
O219        O  0.76201023  0.25238189  0.75054383    -1.90700
Cd220      Cd  0.74566686  0.18759762  0.75329405     1.59900
O221        O  0.75780638  0.32629564  0.83692361    -0.80100
O222        O  0.72784594  0.16376348  0.69090302    -0.78800
C223        C  0.69148211  0.34626286  0.70680099     0.83800
C224        C  0.85900483  0.29836130  0.68592258     0.83400
O225        O  0.73491478  0.22340395  0.64701443    -0.77700
C226        C  0.83464885  0.15677193  0.79575313     0.84200
O227        O  0.71911840  0.32506604  0.68205384    -0.77800
C228        C  0.79929876  0.32448077  0.84818841     0.84400
C229        C  0.66591312  0.20519171  0.81837899     0.84700
O230        O  0.67299995  0.24736273  0.82157044    -0.80200
O231        O  0.20022587  0.78355404  0.85576772    -0.77700
C232        C  0.29945744  0.67457338  0.85521453     0.83300
O233        O  0.32902973  0.83876102  0.76948946    -0.78900
O234        O  0.32851573  0.68237468  0.71626179    -0.80300
O235        O  0.16677898  0.70087958  0.72546827    -0.80100
O236        O  0.15337297  0.78522913  0.79832362    -0.78800
Zn237      Zn  0.26073795  0.76558887  0.82894761     1.55700
O238        O  0.22253857  0.65148241  0.72912845    -0.80200
Cd239      Cd  0.19357139  0.76006828  0.74757650     1.59700
Cd240      Cd  0.29808844  0.79152306  0.72710935     1.59600
O241        O  0.18987828  0.80313351  0.69433033    -0.80200
O242        O  0.25734837  0.75223230  0.76555865    -1.90700
Cd243      Cd  0.27371342  0.68814616  0.75740842     1.59900
O244        O  0.25940098  0.82685303  0.67886004    -0.80100
O245        O  0.29316443  0.65885405  0.81629166    -0.78800
C246        C  0.32448244  0.84468395  0.81167140     0.83800
C247        C  0.16148454  0.79189826  0.83954893     0.83400
O248        O  0.28886037  0.71480754  0.86467697    -0.77700
C249        C  0.18245347  0.66186058  0.71858641     0.84200
O250        O  0.30018577  0.81883757  0.83541016    -0.77800
C251        C  0.21706685  0.82643191  0.67099777     0.84400
C252        C  0.35379796  0.70868136  0.69417803     0.84700
O253        O  0.34718801  0.75110854  0.69392399    -0.80200
O254        O  0.20339956  0.21978189  0.66652333    -0.77700
C255        C  0.29846948  0.32663262  0.65907426     0.83300
O256        O  0.33470273  0.17213873  0.75377162    -0.78900
O257        O  0.33341147  0.32746280  0.79599957    -0.80300
O258        O  0.17015465  0.30950999  0.79557377    -0.80100
O259        O  0.15384362  0.22631014  0.72157351    -0.78800
Zn260      Zn  0.26306057  0.23773977  0.69219490     1.55700
O261        O  0.22643161  0.35799234  0.78806088    -0.80200
Cd262      Cd  0.19523191  0.24974737  0.77218586     1.59700
Cd263      Cd  0.30030077  0.21871339  0.79355223     1.59600
O264        O  0.19151723  0.20516840  0.82394395    -0.80200
O265        O  0.25930736  0.25581573  0.75396381    -1.90700
Cd266      Cd  0.27622748  0.32003982  0.75825432     1.59900
O267        O  0.26122224  0.18257800  0.84056088    -0.80100
O268        O  0.29157343  0.34583136  0.69640381    -0.78800
C269        C  0.32977116  0.16310546  0.71235209     0.83800
C270        C  0.16344854  0.21596159  0.68138778     0.83400
O271        O  0.28988819  0.28542073  0.65328336    -0.77700
C272        C  0.18661977  0.34848778  0.80065107     0.84200
O273        O  0.30315047  0.18520140  0.68759435    -0.77800
C274        C  0.21865631  0.18189512  0.84718612     0.84400
C275        C  0.35719681  0.30224662  0.82078178     0.84700
O276        O  0.34830891  0.26051395  0.82531175    -0.80200
O277        O  0.22580330  0.86080546  0.23081278    -0.77700
C278        C  0.29747558  0.82951263  0.35624615     0.83300
O279        O  0.34207620  0.75977446  0.18726775    -0.78900
O280        O  0.30046407  0.68669537  0.32928972    -0.80300
O281        O  0.15154043  0.72575280  0.28944029    -0.80100
O282        O  0.16599470  0.81660205  0.22514121    -0.78800
Zn283      Zn  0.27450704  0.82135507  0.25703566     1.55700
O284        O  0.19561382  0.71969006  0.34919476    -0.80200
Cd285      Cd  0.19176375  0.75509323  0.24162831     1.59700
Cd286      Cd  0.29399602  0.71965467  0.22061092     1.59600
O287        O  0.18587396  0.71564761  0.18606395    -0.80200
O288        O  0.25559969  0.75931802  0.26059383    -1.90700
Cd289      Cd  0.25800972  0.74041466  0.32477242     1.59900
O290        O  0.25315132  0.68555536  0.17284863    -0.80100
O291        O  0.28527678  0.78971352  0.36553524    -0.78800
C292        C  0.35152748  0.80127646  0.19183050     0.83800
C293        C  0.18469442  0.85458333  0.22057064     0.83400
O294        O  0.29321900  0.84542009  0.31696820    -0.77700
C295        C  0.15787934  0.71408095  0.32982613     0.84200
O296        O  0.32885787  0.82654891  0.21761016    -0.77800
C297        C  0.21124611  0.68978813  0.16360422     0.84400
C298        C  0.32626940  0.66501329  0.30308995     0.84700
O299        O  0.32884101  0.67344540  0.26116895    -0.80200
O300        O  0.79001417  0.35489506  0.28777603    -0.77700
C301        C  0.71548492  0.31840684  0.16148580     0.83300
O302        O  0.66991270  0.25711418  0.33247682    -0.78900
O303        O  0.71445536  0.17501938  0.19401738    -0.80300
O304        O  0.86270052  0.22289908  0.23029143    -0.80100
O305        O  0.84584030  0.30785943  0.30269126    -0.78800
Zn306      Zn  0.74143493  0.31489491  0.26096284     1.55700
O307        O  0.81680121  0.21447648  0.17213852    -0.80200
Cd308      Cd  0.82124902  0.24717677  0.28041173     1.59700
Cd309      Cd  0.71644380  0.21472998  0.29970614     1.59600
O310        O  0.82539898  0.20257921  0.33263031    -0.80200
O311        O  0.75763755  0.25222757  0.26016440    -1.90700
Cd312      Cd  0.75415331  0.23098150  0.19703109     1.59900
O313        O  0.75546877  0.17853810  0.34647130    -0.80100
O314        O  0.72505673  0.27752750  0.15460873    -0.78800
C315        C  0.66354397  0.29910911  0.32698350     0.83800
C316        C  0.82903733  0.34705127  0.30353101     0.83400
O317        O  0.72230502  0.33643626  0.19953254    -0.77700
C318        C  0.85562013  0.21182165  0.18981527     0.84200
O319        O  0.68833968  0.32184903  0.30077388    -0.77800
C320        C  0.79778155  0.17824051  0.35431126     0.84400
C321        C  0.68626739  0.15584942  0.21983441     0.84700
O322        O  0.68076916  0.16804497  0.26047728    -0.80200
O323        O  0.22649376  0.16038939  0.29006184    -0.77700
C324        C  0.29977320  0.19459529  0.16570775     0.83300
O325        O  0.34158919  0.26138292  0.33661769    -0.78900
O326        O  0.30341734  0.33461140  0.19391226    -0.80300
O327        O  0.14943015  0.29361768  0.22882663    -0.80100
O328        O  0.16683156  0.20451050  0.29824343    -0.78800
Zn329      Zn  0.27463412  0.20082404  0.26458288     1.55700
O330        O  0.19836308  0.30300938  0.17329472    -0.80200
Cd331      Cd  0.19063937  0.26686399  0.27911559     1.59700
Cd332      Cd  0.29464238  0.30096103  0.30182865     1.59600
O333        O  0.18587787  0.30834297  0.33376169    -0.80200
O334        O  0.25536768  0.26253838  0.26165986    -1.90700
Cd335      Cd  0.25966744  0.28248945  0.19829522     1.59900
O336        O  0.25404912  0.33646786  0.34775310    -0.80100
O337        O  0.28724171  0.23430318  0.15693810    -0.78800
C338        C  0.35087610  0.22008691  0.33084189     0.83800
C339        C  0.18572568  0.16635152  0.30181717     0.83400
O340        O  0.29504797  0.17791330  0.20463774    -0.77700
C341        C  0.15852450  0.30583240  0.18889182     0.84200
O342        O  0.32806052  0.19591487  0.30432695    -0.77800
C343        C  0.21191657  0.33352357  0.35628603     0.84400
C344        C  0.33080225  0.35368855  0.22020571     0.84700
O345        O  0.33267182  0.34474762  0.26194522    -0.80200
O346        O  0.81527828  0.72930355  0.84793794    -0.77700
C347        C  0.71646873  0.83835442  0.85481204     0.83300
O348        O  0.68309372  0.67951424  0.76605884    -0.78900
O349        O  0.68551009  0.83361604  0.71380822    -0.80300
O350        O  0.84678492  0.82044964  0.72005345    -0.80100
O351        O  0.86087072  0.73144401  0.78887643    -0.78800
Zn352      Zn  0.75447263  0.74812913  0.82438627     1.55700
O353        O  0.78955331  0.86795387  0.72683722    -0.80200
Cd354      Cd  0.82060972  0.75953811  0.74002774     1.59700
Cd355      Cd  0.71623841  0.72574705  0.72386732     1.59600
O356        O  0.82413107  0.71760575  0.68558631    -0.80200
O357        O  0.75722457  0.76475249  0.76135914    -1.90700
Cd358      Cd  0.73971960  0.82875134  0.75533665     1.59900
O359        O  0.75494925  0.68958151  0.67737730    -0.80100
O360        O  0.72047959  0.85547946  0.81598780    -0.78800
C361        C  0.68841324  0.67100599  0.80767719     0.83800
C362        C  0.85338247  0.72194329  0.82978151     0.83400
O363        O  0.72811862  0.79802486  0.86259278    -0.77700
C364        C  0.82982182  0.85928347  0.71516661     0.84200
O365        O  0.71473549  0.69410568  0.83192112    -0.77800
C366        C  0.79645941  0.69164849  0.66625345     0.84400
C367        C  0.66205182  0.80763394  0.68962361     0.84700
O368        O  0.66918574  0.76542875  0.68844333    -0.80200
C369        C  0.91990836  0.15972061  0.18447584    -0.11500
C370        C  0.89245927  0.19157123  0.16363591     0.05500
C371        C  0.89662679  0.19851244  0.11723560    -0.06800
C372        C  0.92494540  0.17094860  0.09189646    -0.07600
C373        C  0.94937791  0.13619712  0.11217701    -0.02100
C374        C  0.94823045  0.13210282  0.15928349     0.04700
N375        N  0.97454940  0.09925605  0.18206340     0.67200
H376        H  0.91749006  0.15440040  0.22016014     0.16100
H377        H  0.92597561  0.17540233  0.05604927     0.15800
N378        N  0.87232570  0.23347073  0.09546062     0.74900
O379        O  0.01469004  0.10809945  0.19230386    -0.38500
O380        O  0.95547934  0.06571846  0.19936643    -0.38500
O381        O  0.88780793  0.27272584  0.09584683    -0.39200
O382        O  0.83971510  0.22410665  0.07029382    -0.39200
C383        C  0.18152574  0.92031781  0.17008511    -0.11500
C384        C  0.15891018  0.89100535  0.19914534     0.05500
C385        C  0.11155513  0.89293499  0.20178758    -0.06800
C386        C  0.08766185  0.92072033  0.17264396    -0.07600
C387        C  0.11014532  0.94677336  0.14047491    -0.02100
C388        C  0.15762011  0.94803765  0.14082740     0.04700
N389        N  0.18213645  0.97649120  0.11105439     0.67200
H390        H  0.21781733  0.91983674  0.16805690     0.16100
H391        H  0.05133811  0.91988196  0.17361418     0.15800
N392        N  0.08712524  0.86610223  0.23312542     0.74900
O393        O  0.19094197  0.01604107  0.12270061    -0.38500
O394        O  0.20196777  0.95990171  0.07762095    -0.38500
O395        O  0.07951394  0.88106205  0.27182333    -0.39200
O396        O  0.06607845  0.83207406  0.21971894    -0.39200
C397        C  0.17481109  0.08372452  0.91534586    -0.11500
C398        C  0.14089408  0.10505426  0.94055623     0.05500
C399        C  0.13831563  0.15224245  0.93924713    -0.06800
C400        C  0.16678628  0.17645314  0.91100642    -0.07600
C401        C  0.19830916  0.15503425  0.88351352    -0.02100
C402        C  0.20331174  0.10827510  0.88674926     0.04700
N403        N  0.23392888  0.08489545  0.85825622     0.67200
H404        H  0.17744819  0.04756664  0.91560907     0.16100
H405        H  0.16275375  0.21246672  0.90900951     0.15800
N406        N  0.10592380  0.17626014  0.96517299     0.74900
O407        O  0.27191859  0.07348595  0.87305533    -0.38500
O408        O  0.21985483  0.06805682  0.82228325    -0.38500
O409        O  0.11720962  0.19225997  0.00246803    -0.39200
O410        O  0.06995731  0.18928559  0.94705299    -0.39200
C411        C  0.10290770  0.84557694  0.93918858    -0.11500
C412        C  0.06964811  0.87114798  0.91790159     0.05500
C413        C  0.06172232  0.86430370  0.87203763    -0.06800
C414        C  0.08994327  0.83554899  0.84758244    -0.07600
C415        C  0.12618346  0.81313235  0.86814579    -0.02100
C416        C  0.13069238  0.81647494  0.91504435     0.04700
N417        N  0.16408209  0.79163906  0.93871888     0.67200
H418        H  0.10863835  0.84961423  0.97462872     0.16100
H419        H  0.08521580  0.83325709  0.81186461     0.15800
N420        N  0.02837557  0.88964750  0.84885795     0.74900
O421        O  0.19847520  0.81143391  0.95331183    -0.38500
O422        O  0.15468586  0.75306732  0.95310238    -0.38500
O423        O  0.03917657  0.92599227  0.83024271    -0.39200
O424        O  0.99098522  0.87191620  0.83994409    -0.39200
C425        C  0.87095831  0.05876257  0.86931641    -0.11500
C426        C  0.91625234  0.06978406  0.87640614     0.05500
C427        C  0.93571118  0.10444086  0.85076255    -0.06800
C428        C  0.90903750  0.13005663  0.82214739    -0.07600
C429        C  0.86269594  0.12208472  0.81813511    -0.02100
C430        C  0.84407724  0.08448981  0.84038606     0.04700
N431        N  0.79736470  0.07397013  0.83683768     0.67200
H432        H  0.85562499  0.03202247  0.88841248     0.16100
H433        H  0.92450613  0.15763319  0.80438276     0.15800
N434        N  0.98251169  0.11480279  0.85418004     0.74900
O435        O  0.78454358  0.04613682  0.80792373    -0.38500
O436        O  0.77056839  0.08593432  0.86734312    -0.38500
O437        O  0.00988646  0.09745220  0.82696245    -0.39200
O438        O  0.99484598  0.14765078  0.87752441    -0.39200
C439        C  0.86424261  0.87200532  0.06149019    -0.11500
C440        C  0.87515226  0.91507674  0.07679530     0.05500
C441        C  0.85340247  0.93127773  0.11576094    -0.00400
C442        C  0.82385926  0.90369236  0.13979011    -0.07600
C443        C  0.81605201  0.85955563  0.12655714    -0.02100
C444        C  0.83552299  0.84400790  0.08644109     0.04700
N445        N  0.82821575  0.79916991  0.07181470     0.67200
H446        H  0.88033240  0.85892826  0.03182211     0.16100
H447        H  0.80961531  0.91578433  0.17080398     0.15800
N448        N  0.86244662  0.97499053  0.13274320     0.74900
O449        O  0.79692860  0.79106051  0.04463499    -0.38500
O450        O  0.85762738  0.76971385  0.07930735    -0.38500
O451        O  0.83513155  0.00626679  0.12480439    -0.39200
O452        O  0.89087751  0.97962380  0.16360998    -0.39200
C453        C  0.58555052  0.09271864  0.17557247    -0.11500
C454        C  0.60577269  0.06805325  0.14099785     0.05500
C455        C  0.65297667  0.06624809  0.13835136    -0.06800
C456        C  0.67890853  0.09237241  0.16723625    -0.07600
C457        C  0.65873918  0.11971270  0.19981893    -0.02100
C458        C  0.61167512  0.11758789  0.20567836     0.04700
N459        N  0.58974163  0.14298567  0.23976146     0.67200
H460        H  0.54912679  0.09391155  0.17824260     0.16100
H461        H  0.71513693  0.09321204  0.16247865     0.15800
N462        N  0.67487085  0.04173098  0.10359634     0.74900
O463        O  0.56945985  0.17864983  0.22972986    -0.38500
O464        O  0.58423997  0.12603661  0.27803977    -0.38500
O465        O  0.68950675  0.06209702  0.06956471    -0.39200
O466        O  0.68664957  0.00180230  0.11052731    -0.39200
C467        C  0.38062961  0.15845284  0.07428102    -0.11500
C468        C  0.37780534  0.11167607  0.07778233     0.05500
C469        C  0.34455516  0.09290560  0.10605110    -0.06800
C470        C  0.31767501  0.12074760  0.13253412    -0.07600
C471        C  0.32241150  0.16737111  0.13100673    -0.02100
C472        C  0.35302612  0.18631839  0.10013759     0.04700
N473        N  0.35924817  0.23360467  0.09717722     0.67200
H474        H  0.40541264  0.17357240  0.05244527     0.16100
H475        H  0.29410356  0.10567237  0.15570033     0.15800
N476        N  0.33976716  0.04562236  0.11097017     0.74900
O477        O  0.39237824  0.25141370  0.11641069    -0.38500
O478        O  0.33784130  0.25558793  0.06818098    -0.38500
O479        O  0.36006393  0.02573874  0.14218770    -0.39200
O480        O  0.30895880  0.02560683  0.09013826    -0.39200
C481        C  0.38878431  0.81617212  0.11868742    -0.11500
C482        C  0.38800593  0.82226300  0.16514834     0.05500
C483        C  0.41769517  0.85371826  0.18438289    -0.06800
C484        C  0.44498069  0.88056713  0.15691245    -0.07600
C485        C  0.44264811  0.87719746  0.11026481    -0.02100
C486        C  0.41549695  0.84359409  0.09122118     0.04700
N487        N  0.41372561  0.83787522  0.04385983     0.67200
H488        H  0.36648044  0.79211757  0.10342188     0.16100
H489        H  0.46568773  0.90612219  0.17197634     0.15800
N490        N  0.41949165  0.85975837  0.23173448     0.74900
O491        O  0.44280446  0.81383124  0.02468332    -0.38500
O492        O  0.37931878  0.85025825  0.02260702    -0.38500
O493        O  0.44974292  0.84026918  0.25391498    -0.39200
O494        O  0.39721794  0.89088512  0.24965993    -0.39200
C495        C  0.66944244  0.84272575  0.92396144    -0.11500
C496        C  0.69429625  0.86497785  0.89052699     0.05500
C497        C  0.69172578  0.91209755  0.88800326    -0.06800
C498        C  0.66122895  0.93520818  0.91509391    -0.07600
C499        C  0.63389054  0.91256176  0.94593828    -0.02100
C500        C  0.63939245  0.86615456  0.95163712     0.04700
N501        N  0.61180098  0.84179104  0.98230526     0.67200
H502        H  0.67085940  0.80664731  0.92660996     0.16100
H503        H  0.65817838  0.97111397  0.91132470     0.15800
N504        N  0.71961203  0.93702651  0.85795786     0.74900
O505        O  0.57374738  0.82788006  0.97003456    -0.38500
O506        O  0.62854331  0.82746082  0.01825437    -0.38500
O507        O  0.70203560  0.95787762  0.82574134    -0.39200
O508        O  0.75968354  0.94549386  0.86878512    -0.39200
C509        C  0.58333631  0.11724140  0.86020803    -0.11500
C510        C  0.57236042  0.13294128  0.90318011     0.05500
C511        C  0.58769699  0.17607307  0.91545628    -0.06800
C512        C  0.61607219  0.20050533  0.88645392    -0.07600
C513        C  0.62970633  0.18287704  0.84501046    -0.02100
C514        C  0.61151999  0.14134360  0.83147585     0.04700
N515        N  0.62204886  0.12229158  0.78887725     0.67200
H516        H  0.57147284  0.08502382  0.84907644     0.16100
H517        H  0.62897448  0.23241278  0.89730303     0.15800
N518        N  0.57589207  0.19527866  0.95755506     0.74900
O519        O  0.65165827  0.09216312  0.78622509    -0.38500
O520        O  0.59561236  0.12837178  0.75653796    -0.38500
O521        O  0.60491306  0.19747767  0.98813419    -0.39200
O522        O  0.54015903  0.21778062  0.96091537    -0.39200
C523        C  0.35688787  0.92899821  0.90054168    -0.11500
C524        C  0.39968945  0.94289206  0.88617902     0.05500
C525        C  0.41477067  0.92901139  0.84341465    -0.06800
C526        C  0.38900125  0.89857464  0.81835176    -0.07600
C527        C  0.34801966  0.88185780  0.83489428    -0.02100
C528        C  0.33127520  0.89899123  0.87574274     0.04700
N529        N  0.28860907  0.88550888  0.89337736     0.67200
H530        H  0.34358743  0.93984179  0.93250954     0.16100
H531        H  0.40197224  0.88674874  0.78660558     0.15800
N532        N  0.45632675  0.94475944  0.82520220     0.74900
O533        O  0.28706264  0.85649058  0.92401613    -0.38500
O534        O  0.25429641  0.90901768  0.88550532    -0.38500
O535        O  0.48933470  0.91845742  0.82182060    -0.39200
O536        O  0.45749869  0.98204881  0.80544398    -0.39200
C537        C  0.09173733  0.17345272  0.67191459    -0.11500
C538        C  0.12863943  0.19561040  0.65224594     0.05500
C539        C  0.13521566  0.19186540  0.60560186    -0.06800
C540        C  0.10905705  0.16205938  0.58092053    -0.07600
C541        C  0.07505632  0.13675655  0.60139739    -0.02100
C542        C  0.06486490  0.14422789  0.64681371     0.04700
N543        N  0.03046915  0.11916831  0.66899188     0.67200
H544        H  0.08570291  0.17610160  0.70743353     0.16100
H545        H  0.11610985  0.15782931  0.54571540     0.15800
N546        N  0.16877500  0.21752703  0.58279400     0.74900
O547        O  0.03915486  0.08064170  0.68388804    -0.38500
O548        O  0.99438012  0.13826177  0.68037512    -0.38500
O549        O  0.20242983  0.19816948  0.56581544    -0.39200
O550        O  0.16066881  0.25768506  0.57264422    -0.39200
C551        C  0.11263293  0.13052225  0.32096825    -0.11500
C552        C  0.15982178  0.12903403  0.32225761     0.05500
C553        C  0.18079216  0.09493245  0.34750566    -0.06800
C554        C  0.15472319  0.06688628  0.37482564    -0.07600
C555        C  0.10767992  0.07089954  0.37631717    -0.02100
C556        C  0.08652441  0.10150151  0.34711026     0.04700
N557        N  0.03871830  0.10629363  0.34618263     0.67200
H558        H  0.09585134  0.15557281  0.30104124     0.16100
H559        H  0.17146744  0.04291645  0.39606086     0.15800
N560        N  0.22859109  0.08998359  0.34812436     0.74900
O561        O  0.01996617  0.13468248  0.37121178    -0.38500
O562        O  0.01673991  0.08908882  0.31458155    -0.38500
O563        O  0.25074195  0.10482946  0.38077767    -0.39200
O564        O  0.24724438  0.06363711  0.32087534    -0.39200
C565        C  0.86737681  0.95263186  0.63750406    -0.11500
C566        C  0.91415256  0.94883423  0.64103335     0.05500
C567        C  0.93260847  0.92067887  0.67401307    -0.06800
C568        C  0.90429726  0.89369432  0.69993048    -0.07600
C569        C  0.85754988  0.89434183  0.69363558    -0.02100
C570        C  0.83892118  0.92546546  0.66322983     0.04700
N571        N  0.79180617  0.92607444  0.65403637     0.67200
H572        H  0.85289528  0.97382569  0.61181076     0.16100
H573        H  0.91910896  0.87082661  0.72393813     0.15800
N574        N  0.98010442  0.91856197  0.68087126     0.74900
O575        O  0.76779796  0.95734143  0.66928624    -0.38500
O576        O  0.77630628  0.90108820  0.62384368    -0.38500
O577        O  0.99779097  0.94275564  0.71050802    -0.39200
O578        O  0.00248542  0.88690746  0.66405202    -0.39200
C579        C  0.83467803  0.16644885  0.42784579    -0.11500
C580        C  0.81711914  0.14812220  0.38840146     0.05500
C581        C  0.82723351  0.10347107  0.37764251    -0.06800
C582        C  0.85690982  0.07899317  0.40451487    -0.07600
C583        C  0.87716549  0.09816099  0.44240242    -0.02100
C584        C  0.86409981  0.14175316  0.45514852     0.04700
N585        N  0.88343486  0.16296276  0.49324410     0.67200
H586        H  0.82767793  0.20100843  0.43606631     0.16100
H587        H  0.86587973  0.04541764  0.39432998     0.15800
N588        N  0.81104794  0.08390270  0.33723443     0.74900
O589        O  0.91911337  0.18537584  0.48881130    -0.38500
O590        O  0.86069597  0.16640048  0.52875261    -0.38500
O591        O  0.83457063  0.08633432  0.30212998    -0.39200
O592        O  0.77813309  0.05733542  0.33869832    -0.39200
C593        C  0.17773433  0.92258379  0.59675841    -0.11500
C594        C  0.14169428  0.90206322  0.57411986     0.05500
C595        C  0.13625835  0.85527155  0.57869397    -0.06800
C596        C  0.16354469  0.83120927  0.60818491    -0.07600
C597        C  0.19709109  0.85223777  0.63344258    -0.02100
C598        C  0.20538343  0.89811490  0.62619455     0.04700
N599        N  0.23884296  0.92116526  0.65135468     0.67200
H600        H  0.18285616  0.95833462  0.59380912     0.16100
H601        H  0.15721199  0.79577638  0.61268556     0.15800
N602        N  0.10228646  0.83160535  0.55471222     0.74900
O603        O  0.27780123  0.92587188  0.63520180    -0.38500
O604        O  0.22730800  0.94389973  0.68497844    -0.38500
O605        O  0.11228601  0.81286715  0.51825913    -0.39200
O606        O  0.06600846  0.82138288  0.57420484    -0.39200
C607        C  0.94280384  0.88331456  0.36313889    -0.11500
C608        C  0.94301940  0.87704066  0.40974030     0.05500
C609        C  0.91610931  0.84261416  0.42821830    -0.06800
C610        C  0.88718961  0.81811626  0.40062031    -0.07600
C611        C  0.88510806  0.82642151  0.35448502    -0.02100
C612        C  0.91434412  0.85846515  0.33554726     0.04700
N613        N  0.91268151  0.86916111  0.28898933     0.67200
H614        H  0.96330683  0.90923435  0.34807125     0.16100
H615        H  0.86541503  0.79316154  0.41556590     0.15800
N616        N  0.91562699  0.83372680  0.47515508     0.74900
O617        O  0.88516285  0.89819073  0.27528110    -0.38500
O618        O  0.94370413  0.85592220  0.26336203    -0.38500
O619        O  0.88453713  0.84959703  0.49915328    -0.39200
O620        O  0.94071622  0.80351262  0.49076424    -0.39200
C621        C  0.20081475  0.61827584  0.12042324    -0.11500
C622        C  0.18949789  0.66338830  0.12721177     0.05500
C623        C  0.15252316  0.68116383  0.10340137    -0.06800
C624        C  0.12602134  0.65351314  0.07647905    -0.07600
C625        C  0.13495044  0.60759616  0.07225387    -0.02100
C626        C  0.17397902  0.59034351  0.09340520     0.04700
N627        N  0.18525580  0.54401006  0.09047638     0.67200
H628        H  0.22887410  0.60388272  0.13834254     0.16100
H629        H  0.09721215  0.66809024  0.05992483     0.15800
N630        N  0.14060399  0.72733423  0.10696456     0.74900
O631        O  0.21417857  0.53128686  0.06228780    -0.38500
O632        O  0.17265615  0.51752921  0.12091210    -0.38500
O633        O  0.15559489  0.75479266  0.07853859    -0.39200
O634        O  0.10833316  0.73868949  0.13199057    -0.39200
C635        C  0.09992219  0.35315702  0.08678085    -0.11500
C636        C  0.06540851  0.37865131  0.10603044     0.05500
C637        C  0.05695694  0.37442202  0.15224177    -0.06800
C638        C  0.08587873  0.34828068  0.17892395    -0.07600
C639        C  0.12289409  0.32561875  0.15988944    -0.02100
C640        C  0.12804321  0.32645356  0.11289648     0.04700
N641        N  0.16230025  0.30097675  0.09101962     0.67200
H642        H  0.10611496  0.35514378  0.05116291     0.16100
H643        H  0.08082666  0.34777327  0.21473652     0.15800
N644        N  0.02149368  0.39915264  0.17296290     0.74900
O645        O  0.15603745  0.25991673  0.08375582    -0.38500
O646        O  0.19499743  0.32069896  0.07260745    -0.38500
O647        O  0.98206353  0.38360803  0.17313313    -0.39200
O648        O  0.02830330  0.43874045  0.18574823    -0.39200
C649        C  0.15040518  0.44321723  0.87699977    -0.11500
C650        C  0.10369265  0.43669326  0.87820523     0.05500
C651        C  0.08420630  0.40459668  0.84970783    -0.06800
C652        C  0.11176683  0.37786774  0.82283966    -0.07600
C653        C  0.15876218  0.38266478  0.82338656    -0.02100
C654        C  0.17794224  0.41699418  0.84951043     0.04700
N655        N  0.22545719  0.42400888  0.85075021     0.67200
H656        H  0.16571471  0.46799639  0.89824948     0.16100
H657        H  0.09639266  0.35209607  0.80284357     0.15800
N658        N  0.03691403  0.39599345  0.85034490     0.74900
O659        O  0.24331950  0.45116502  0.82369547    -0.38500
O660        O  0.24780648  0.40996457  0.88368379    -0.38500
O661        O  0.01281206  0.40937698  0.81838068    -0.39200
O662        O  0.02089795  0.36857975  0.87827329    -0.39200
C663        C  0.93026589  0.60719715  0.15609381    -0.11500
C664        C  0.90786088  0.57366915  0.13215183     0.05500
C665        C  0.86204069  0.56563714  0.14127213    -0.06800
C666        C  0.83884262  0.59342199  0.17138690    -0.07600
C667        C  0.86058272  0.62938739  0.19266679    -0.02100
C668        C  0.90742003  0.63458589  0.18636933     0.04700
N669        N  0.93229783  0.66798461  0.20983120     0.67200
H670        H  0.96587152  0.61292450  0.15048399     0.16100
H671        H  0.80294022  0.58865395  0.17564003     0.15800
N672        N  0.83759663  0.53246034  0.11715991     0.74900
O673        O  0.94579260  0.66000941  0.24898068    -0.38500
O674        O  0.94796815  0.70114670  0.18881172    -0.38500
O675        O  0.82614963  0.49672395  0.13654695    -0.39200
O676        O  0.82035025  0.54232610  0.07994980    -0.39200
C677        C  0.91945811  0.67082889  0.92577462    -0.11500
C678        C  0.94399121  0.63751452  0.90323336     0.05500
C679        C  0.94287150  0.63667471  0.85599480    -0.06800
C680        C  0.91566112  0.66694488  0.83271852    -0.07600
C681        C  0.88836377  0.69778842  0.85548499    -0.02100
C682        C  0.89142534  0.70043703  0.90246971     0.04700
N683        N  0.86551689  0.73221980  0.92718699     0.67200
H684        H  0.91985925  0.67231341  0.96188936     0.16100
H685        H  0.91390812  0.66437399  0.79669959     0.15800
N686        N  0.96792155  0.60440397  0.83102519     0.74900
O687        O  0.82922800  0.72012485  0.94553706    -0.38500
O688        O  0.88312520  0.76894513  0.93816714    -0.38500
O689        O  0.94783604  0.57127138  0.81433050    -0.39200
O690        O  0.00707536  0.61393901  0.81774083    -0.39200
C691        C  0.84547303  0.42700766  0.90601734    -0.11500
C692        C  0.87259545  0.40772940  0.93934027     0.05500
C693        C  0.86960779  0.36122382  0.94666604    -0.06800
C694        C  0.84283328  0.33472586  0.91851259    -0.07600
C695        C  0.81752911  0.35384618  0.88376139    -0.02100
C696        C  0.81769545  0.40069914  0.87877311     0.04700
N697        N  0.79329304  0.42161075  0.84339700     0.67200
H698        H  0.84731627  0.46275282  0.89976933     0.16100
H699        H  0.84346568  0.29862205  0.92249796     0.15800
N700        N  0.89648905  0.33994608  0.97992514     0.74900
O701        O  0.75364699  0.43497968  0.85033637    -0.38500
O702        O  0.81375705  0.43385170  0.80845427    -0.38500
O703        O  0.87931037  0.33044691  0.01734851    -0.39200
O704        O  0.93448898  0.32423297  0.96955509    -0.39200
C705        C  0.42996657  0.17973226  0.42239318    -0.11500
C706        C  0.44816751  0.14154719  0.40185938     0.05500
C707        C  0.43938799  0.13364740  0.35645413    -0.06800
C708        C  0.40992550  0.16173537  0.33330418    -0.07600
C709        C  0.38871706  0.19805156  0.35458288    -0.02100
C710        C  0.40091309  0.20843072  0.39893563     0.04700
N711        N  0.38154114  0.24565757  0.42182170     0.67200
H712        H  0.43641512  0.18594462  0.45734057     0.16100
H713        H  0.40178865  0.15361052  0.29910310     0.15800
N714        N  0.45620890  0.09457229  0.33466206     0.74900
O715        O  0.34623644  0.24017685  0.44468394    -0.38500
O716        O  0.40451733  0.28071194  0.42700664    -0.38500
O717        O  0.43221155  0.05983499  0.33337871    -0.39200
O718        O  0.48979897  0.09777025  0.30900525    -0.39200
C719        C  0.67300820  0.92210414  0.33487523    -0.11500
C720        C  0.65250960  0.88503605  0.31461209     0.05500
C721        C  0.60591677  0.87871632  0.31981128    -0.06800
C722        C  0.58153495  0.90661696  0.34864573    -0.07600
C723        C  0.60253253  0.94208993  0.37129463    -0.02100
C724        C  0.64815486  0.95126745  0.36219544     0.04700
N725        N  0.67058969  0.98786269  0.38308135     0.67200
H726        H  0.70876406  0.92729012  0.33102629     0.16100
H727        H  0.54636286  0.89960155  0.35452230     0.15800
N728        N  0.58355400  0.84216435  0.29869073     0.74900
O729        O  0.69306924  0.98133945  0.41817679    -0.38500
O730        O  0.67450388  0.02443222  0.36235161    -0.38500
O731        O  0.57069463  0.80919874  0.32178563    -0.39200
O732        O  0.56940125  0.84662308  0.25922350    -0.39200
C733        C  0.67307148  0.08689463  0.58724466    -0.11500
C734        C  0.64354894  0.10972513  0.55880450     0.05500
C735        C  0.64617577  0.15670426  0.55605350    -0.06800
C736        C  0.67557480  0.18003457  0.58445478    -0.07600
C737        C  0.70232832  0.15719291  0.61588704    -0.02100
C738        C  0.70246152  0.10995806  0.61534626     0.04700
N739        N  0.73117744  0.08477821  0.64416829     0.67200
H740        H  0.67181199  0.05068392  0.58919916     0.16100
H741        H  0.67485550  0.21628218  0.58421135     0.15800
N742        N  0.61593013  0.18133639  0.52834062     0.74900
O743        O  0.71506505  0.06700757  0.67899356    -0.38500
O744        O  0.76923378  0.07243669  0.63007403    -0.38500
O745        O  0.57989587  0.19648022  0.54478045    -0.39200
O746        O  0.62888780  0.19481403  0.49044822    -0.39200
C747        C  0.59146836  0.84708340  0.59110455    -0.11500
C748        C  0.57263034  0.88647358  0.60901298     0.05500
C749        C  0.57777402  0.89474963  0.65523256    -0.06800
C750        C  0.60422592  0.86628256  0.68127346    -0.07600
C751        C  0.62614372  0.82909585  0.66266642    -0.02100
C752        C  0.61806978  0.81844835  0.61748850     0.04700
N753        N  0.63964313  0.78108576  0.59687539     0.67200
H754        H  0.58777480  0.83972915  0.55594797     0.16100
H755        H  0.60925524  0.87452473  0.71609404     0.15800
N756        N  0.55757302  0.93267553  0.67629116     0.74900
O757        O  0.61904559  0.74432064  0.59428403    -0.38500
O758        O  0.67474811  0.78713462  0.57384420    -0.38500
O759        O  0.52031810  0.92822948  0.69610669    -0.39200
O760        O  0.58091801  0.96717065  0.68329455    -0.39200
C761        C  0.36563550  0.07691639  0.62804256    -0.11500
C762        C  0.41244513  0.07642365  0.63391243     0.05500
C763        C  0.43083098  0.09873407  0.67137797    -0.06800
C764        C  0.40265642  0.12393347  0.69951402    -0.07600
C765        C  0.35649164  0.12758393  0.69069734    -0.02100
C766        C  0.33779779  0.10222403  0.65568779     0.04700
N767        N  0.29063260  0.10324658  0.64656513     0.67200
H768        H  0.35042568  0.05903310  0.60048921     0.16100
H769        H  0.41746907  0.14332501  0.72624651     0.15800
N770        N  0.47816853  0.09921626  0.67937973     0.74900
O771        O  0.27626522  0.12578929  0.61389626    -0.38500
O772        O  0.26511435  0.07499124  0.66503782    -0.38500
O773        O  0.50158778  0.13133657  0.66491117    -0.39200
O774        O  0.49467777  0.07279082  0.70785514    -0.39200
C775        C  0.31663554  0.90445658  0.38681431    -0.11500
C776        C  0.31958842  0.85771673  0.39056699     0.05500
C777        C  0.34861507  0.83929557  0.42301559    -0.06800
C778        C  0.37674434  0.86738336  0.44786455    -0.07600
C779        C  0.37618320  0.91398307  0.44173751    -0.02100
C780        C  0.34424634  0.93260824  0.41216406     0.04700
N781        N  0.34209672  0.97969097  0.40426465     0.67200
H782        H  0.29433742  0.91925964  0.36241762     0.16100
H783        H  0.40040380  0.85243742  0.47086077     0.15800
N784        N  0.35281409  0.79202908  0.42861011     0.74900
O785        O  0.36787484  0.99711147  0.37555332    -0.38500
O786        O  0.30885100  0.00166897  0.41862774    -0.38500
O787        O  0.38508671  0.77162275  0.41026664    -0.39200
O788        O  0.32961921  0.77242307  0.45809115    -0.39200
C789        C  0.34507793  0.66700287  0.92472468    -0.11500
C790        C  0.32261262  0.64626884  0.88896877     0.05500
C791        C  0.32739288  0.59951912  0.88335086    -0.06800
C792        C  0.35589833  0.57527101  0.91144643    -0.07600
C793        C  0.38082461  0.59660360  0.94488096    -0.02100
C794        C  0.37435060  0.64267769  0.95227883     0.04700
N795        N  0.39747737  0.66537123  0.98734086     0.67200
H796        H  0.34183455  0.70250093  0.92998269     0.16100
H797        H  0.36042601  0.54002789  0.90533701     0.15800
N798        N  0.30513166  0.57613644  0.84815895     0.74900
O799        O  0.43225617  0.68786825  0.97840150    -0.38500
O800        O  0.37858000  0.66996544  0.02487459    -0.38500
O801        O  0.32712086  0.56474977  0.81387227    -0.39200
O802        O  0.26705662  0.55894293  0.85536190    -0.39200
C803        C  0.34311329  0.42222379  0.17643841    -0.11500
C804        C  0.36172653  0.38601916  0.19973470     0.05500
C805        C  0.40767745  0.37587320  0.19426624    -0.06800
C806        C  0.43381397  0.40107515  0.16442634    -0.07600
C807        C  0.41439886  0.43544362  0.13888700    -0.02100
C808        C  0.36900118  0.44686579  0.14606231     0.04700
N809        N  0.34846926  0.48283347  0.12218079     0.67200
H810        H  0.30775471  0.42981688  0.18003831     0.16100
H811        H  0.46844046  0.39159949  0.15880153     0.15800
N812        N  0.42688422  0.33698087  0.21446474     0.74900
O813        O  0.32477056  0.47454264  0.08829686    -0.38500
O814        O  0.34650611  0.52103447  0.13988594    -0.38500
O815        O  0.42674062  0.30047227  0.19341108    -0.39200
O816        O  0.45188410  0.34117495  0.24816656    -0.39200
C817        C  0.58828583  0.66736347  0.09489717    -0.11500
C818        C  0.57259531  0.62712728  0.11382513     0.05500
C819        C  0.58186765  0.61847769  0.15941391    -0.06800
C820        C  0.61006919  0.64707523  0.18318437    -0.07600
C821        C  0.62888064  0.68519523  0.16315737    -0.02100
C822        C  0.61598796  0.69648110  0.11925321     0.04700
N823        N  0.63310141  0.73562839  0.09782176     0.67200
H824        H  0.58116329  0.67519257  0.06032546     0.16100
H825        H  0.61820806  0.63868476  0.21743125     0.15800
N826        N  0.56389976  0.58027178  0.18206191     0.74900
O827        O  0.66757621  0.73289600  0.07327906    -0.38500
O828        O  0.60932268  0.77053881  0.09674853    -0.38500
O829        O  0.58960914  0.54837586  0.19249384    -0.39200
O830        O  0.52519128  0.58244562  0.19932206    -0.39200
C831        C  0.64588719  0.35547684  0.06039696    -0.11500
C832        C  0.64496838  0.40188149  0.06719390     0.05500
C833        C  0.67206251  0.42038511  0.10108508    -0.06800
C834        C  0.69671074  0.39258954  0.12941068    -0.07600
C835        C  0.69480355  0.34592133  0.12542018    -0.02100
C836        C  0.67025854  0.32732423  0.08935367     0.04700
N837        N  0.66607236  0.28001921  0.08411424     0.67200
H838        H  0.62466609  0.34073155  0.03511646     0.16100
H839        H  0.71596291  0.40778328  0.15595917     0.15800
N840        N  0.67292226  0.46750843  0.10886658     0.74900
O841        O  0.63512401  0.25942220  0.10447122    -0.38500
O842        O  0.68737739  0.26057564  0.05321915    -0.38500
O843        O  0.65101408  0.48352891  0.14128824    -0.39200
O844        O  0.70260833  0.49107125  0.08997012    -0.39200
C845        C  0.65689095  0.57484701  0.88538069    -0.11500
C846        C  0.60988695  0.57478354  0.88171775     0.05500
C847        C  0.58947586  0.60307453  0.84982677    -0.06800
C848        C  0.61584843  0.63221209  0.82377228    -0.07600
C849        C  0.66257575  0.63446112  0.82957976    -0.02100
C850        C  0.68321221  0.60464324  0.86000868     0.04700
N851        N  0.73088097  0.60467732  0.86600668     0.67200
H852        H  0.67301844  0.55360555  0.90980645     0.16100
H853        H  0.59950931  0.65465029  0.80058878     0.15800
N854        N  0.54179566  0.60309089  0.84407719     0.74900
O855        O  0.74787345  0.62632759  0.89792124    -0.38500
O856        O  0.75475127  0.57690477  0.84488501    -0.38500
O857        O  0.51891498  0.63613322  0.85714621    -0.39200
O858        O  0.52384795  0.57408362  0.81931752    -0.39200
C859        C  0.44617892  0.38630610  0.85724923    -0.11500
C860        C  0.45258714  0.37400229  0.90194144     0.05500
C861        C  0.43252146  0.33423345  0.91780555    -0.06800
C862        C  0.40447419  0.30894476  0.88971956    -0.07600
C863        C  0.39474558  0.32344620  0.84610555    -0.02100
C864        C  0.41737572  0.36179405  0.82945065     0.04700
N865        N  0.41018557  0.37742282  0.78484864     0.67200
H866        H  0.46116569  0.41683707  0.84466731     0.16100
H867        H  0.38782840  0.27967714  0.90316365     0.15800
N868        N  0.43895351  0.32001832  0.96293472     0.74900
O869        O  0.38477697  0.41056437  0.77823054    -0.38500
O870        O  0.43582491  0.36427546  0.75386223    -0.38500
O871        O  0.46584757  0.28845442  0.97113183    -0.39200
O872        O  0.41198515  0.33285465  0.99292184    -0.39200
C873        C  0.12774733  0.37045836  0.44332998    -0.11500
C874        C  0.13548863  0.41671057  0.44518916     0.05500
C875        C  0.17443036  0.43409617  0.42400558    -0.06800
C876        C  0.20165984  0.40593422  0.39755652    -0.07600
C877        C  0.19093759  0.36043390  0.39244781    -0.02100
C878        C  0.15503011  0.34247470  0.41763450     0.04700
N879        N  0.14496761  0.29575283  0.41653472     0.67200
H880        H  0.09941125  0.35593750  0.46064456     0.16100
H881        H  0.22930838  0.42015620  0.37896511     0.15800
N882        N  0.18522773  0.48057905  0.42653471     0.74900
O883        O  0.16593426  0.26939789  0.44200643    -0.38500
O884        O  0.11008379  0.28231787  0.39678217    -0.38500
O885        O  0.20837961  0.49510052  0.45865378    -0.39200
O886        O  0.17168994  0.50717509  0.39669176    -0.39200
C887        C  0.84810386  0.59000156  0.61278051    -0.11500
C888        C  0.86768313  0.60818158  0.57386219     0.05500
C889        C  0.85733607  0.65276907  0.56214714    -0.06800
C890        C  0.83135414  0.67917081  0.59136420    -0.07600
C891        C  0.81464670  0.66149571  0.63167766    -0.02100
C892        C  0.82217577  0.61620733  0.64170398     0.04700
N893        N  0.80809624  0.59771582  0.68357229     0.67200
H894        H  0.85542415  0.55584500  0.62245797     0.16100
H895        H  0.82600755  0.71415227  0.58357978     0.15800
N896        N  0.87587905  0.67281016  0.52283682     0.74900
O897        O  0.77619100  0.56995145  0.68473083    -0.38500
O898        O  0.83233883  0.60298545  0.71770203    -0.38500
O899        O  0.85272103  0.67441011  0.48761499    -0.39200
O900        O  0.91136842  0.69573664  0.52553907    -0.39200
C901        C  0.10700434  0.63717510  0.69371495    -0.11500
C902        C  0.15355112  0.62915684  0.69523973     0.05500
C903        C  0.17167719  0.59369061  0.66967692    -0.06800
C904        C  0.14397270  0.57008957  0.64029347    -0.07600
C905        C  0.09815690  0.58041845  0.63663572    -0.02100
C906        C  0.07928923  0.61312990  0.66485767     0.04700
N907        N  0.03296874  0.62543455  0.66153529     0.67200
H908        H  0.09225709  0.66375314  0.71336450     0.16100
H909        H  0.15859167  0.54449474  0.61928552     0.15800
N910        N  0.21850132  0.58298164  0.67083577     0.74900
O911        O  0.00508973  0.61039356  0.68965869    -0.38500
O912        O  0.02179944  0.65757317  0.63654795    -0.38500
O913        O  0.23180113  0.55043168  0.69419668    -0.39200
O914        O  0.24492631  0.60054177  0.64278078    -0.39200
C915        C  0.94143259  0.38861777  0.65409164    -0.11500
C916        C  0.94718417  0.38066226  0.60812533     0.05500
C917        C  0.92958699  0.34077654  0.58977777    -0.06800
C918        C  0.90274464  0.31265749  0.61629474    -0.07600
C919        C  0.89422977  0.32284654  0.66126839    -0.02100
C920        C  0.91526642  0.36026447  0.68060529     0.04700
N921        N  0.90598616  0.37305199  0.72571435     0.67200
H922        H  0.95504934  0.41849799  0.66921920     0.16100
H923        H  0.88716556  0.28368050  0.60129139     0.15800
N924        N  0.93635506  0.32949420  0.54386129     0.74900
O925        O  0.93340711  0.36287174  0.75615950    -0.38500
O926        O  0.87570874  0.40158497  0.73348171    -0.38500
O927        O  0.96707241  0.30232808  0.53334992    -0.39200
O928        O  0.90705811  0.34006720  0.51532689    -0.39200
C929        C  0.11124643  0.70253449  0.39840219    -0.11500
C930        C  0.12099603  0.69123092  0.35395783     0.05500
C931        C  0.09639587  0.65654832  0.33326251    -0.06800
C932        C  0.06482004  0.63200658  0.35810775    -0.07600
C933        C  0.05709991  0.64169503  0.40326924    -0.02100
C934        C  0.07883957  0.67864436  0.42277532     0.04700
N935        N  0.06886999  0.69119630  0.46783744     0.67200
H936        H  0.12910850  0.72991862  0.41435846     0.16100
H937        H  0.04913635  0.60281653  0.34310211     0.15800
N938        N  0.10651410  0.64294455  0.28852083     0.74900
O939        O  0.09840670  0.68739123  0.49777038    -0.38500
O940        O  0.02958898  0.70340963  0.47828142    -0.38500
O941        O  0.14317563  0.62345384  0.27989429    -0.39200
O942        O  0.07988099  0.65251530  0.25719479    -0.39200
C943        C  0.92526707  0.41172240  0.35544866    -0.11500
C944        C  0.90227897  0.44211144  0.38292649     0.05500
C945        C  0.85503754  0.44487305  0.37995063    -0.06800
C946        C  0.83165192  0.41579357  0.35125351    -0.07600
C947        C  0.85468616  0.38337754  0.32584417    -0.02100
C948        C  0.90211385  0.38272865  0.32706243     0.04700
N949        N  0.92740167  0.35253136  0.29986336     0.67200
H950        H  0.96155559  0.40965187  0.35687393     0.16100
H951        H  0.79529755  0.41647455  0.35129972     0.15800
N952        N  0.83009016  0.47344030  0.40916119     0.74900
O953        O  0.93577612  0.36274296  0.25976961    -0.38500
O954        O  0.94808396  0.32036178  0.31779363    -0.38500
O955        O  0.81160355  0.50816771  0.39382965    -0.39200
O956        O  0.82023276  0.46013529  0.44802943    -0.39200
C957        C  0.42573529  0.59867673  0.34672023    -0.11500
C958        C  0.40437011  0.57190244  0.37922674     0.05500
C959        C  0.35693324  0.57154751  0.38125225    -0.06800
C960        C  0.33208667  0.59998039  0.35355321    -0.07600
C961        C  0.35356411  0.62920688  0.32357734    -0.02100
C962        C  0.40074117  0.62772711  0.31941706     0.04700
N963        N  0.42417107  0.65927064  0.29199139     0.67200
H964        H  0.46180883  0.59992532  0.34504009     0.16100
H965        H  0.29608721  0.60061852  0.35684124     0.15800
N966        N  0.33329730  0.54354754  0.41217725     0.74900
O967        O  0.43186315  0.69794152  0.30693036    -0.38500
O968        O  0.44495001  0.64592080  0.25769301    -0.38500
O969        O  0.31651041  0.56039095  0.44709201    -0.39200
O970        O  0.32150356  0.50484348  0.40032064    -0.39200
C971        C  0.61748974  0.38404894  0.69510099    -0.11500
C972        C  0.66375967  0.38199468  0.68581209     0.05500
C973        C  0.68168546  0.41077140  0.65264020    -0.06800
C974        C  0.65316849  0.43908140  0.62821507    -0.07600
C975        C  0.60653848  0.43849683  0.63512178    -0.02100
C976        C  0.58879775  0.41133086  0.66960119     0.04700
N977        N  0.54154015  0.41008914  0.67826064     0.67200
H978        H  0.60306170  0.36228471  0.72032394     0.16100
H979        H  0.66727714  0.45946364  0.60167721     0.15800
N980        N  0.72865331  0.41068710  0.64234943     0.74900
O981        O  0.51816641  0.37891762  0.66205622    -0.38500
O982        O  0.52536249  0.43388589  0.70916004    -0.38500
O983        O  0.74263721  0.38963888  0.60852861    -0.39200
O984        O  0.75418129  0.43854101  0.66114223    -0.39200
C985        C  0.37989265  0.36119325  0.56852708    -0.11500
C986        C  0.37491801  0.40790509  0.56960137     0.05500
C987        C  0.33889290  0.42654368  0.59428811    -0.06800
C988        C  0.31190150  0.39886406  0.62082891    -0.07600
C989        C  0.31970418  0.35266962  0.62288041    -0.02100
C990        C  0.35256554  0.33352218  0.59470481     0.04700
N991        N  0.36187198  0.28663736  0.59566408     0.67200
H992        H  0.40658772  0.34616290  0.54919281     0.16100
H993        H  0.28637572  0.41384848  0.64170652     0.15800
N994        N  0.33144103  0.47371899  0.59596787     0.74900
O995        O  0.34558492  0.26159230  0.56594964    -0.38500
O996        O  0.39200511  0.27172714  0.62127450    -0.38500
O997        O  0.30030931  0.49076072  0.57300069    -0.39200
O998        O  0.34973890  0.49655491  0.62630273    -0.39200
C999        C  0.68958663  0.60869320  0.37731518    -0.11500
C1000       C  0.69505320  0.65425442  0.38748180     0.05500
C1001       C  0.67609255  0.67044684  0.42791532    -0.06800
C1002       C  0.64881515  0.64240242  0.45443027    -0.07600
C1003       C  0.64011518  0.59814265  0.44162695    -0.02100
C1004       C  0.66267856  0.58079659  0.40378735     0.04700
N1005       N  0.65790318  0.53494347  0.39112869     0.67200
H1006       H  0.70483104  0.59474913  0.34758601     0.16100
H1007       H  0.63228037  0.65612919  0.48357622     0.15800
N1008       N  0.68200771  0.71580892  0.44147685     0.74900
O1009       O  0.63174393  0.52468458  0.35964859    -0.38500
O1010       O  0.68628302  0.50666449  0.40464505    -0.38500
O1011       O  0.65043770  0.74347440  0.43613021    -0.39200
O1012       O  0.71478854  0.72593770  0.46612634    -0.39200
C1013       C  0.44296112  0.62561057  0.65583240    -0.11500
C1014       C  0.44723873  0.63642346  0.61051810     0.05500
C1015       C  0.42489146  0.67478148  0.59412749    -0.06800
C1016       C  0.39775251  0.70068356  0.62285163    -0.07600
C1017       C  0.39067645  0.68776375  0.66749437    -0.02100
C1018       C  0.41439434  0.65010069  0.68402940     0.04700
N1019       N  0.40746453  0.63425535  0.72862513     0.67200
H1020       H  0.45894731  0.59565745  0.66864802     0.16100
H1021       H  0.37949343  0.72894565  0.60928603     0.15800
N1022       N  0.42754389  0.68645806  0.54787730     0.74900
O1023       O  0.38012951  0.60268401  0.73543004    -0.38500
O1024       O  0.43547927  0.64418000  0.75857045    -0.38500
O1025       O  0.39580479  0.67602733  0.52203323    -0.39200
O1026       O  0.45691809  0.71403758  0.53489031    -0.39200
C1027       C  0.61176659  0.30747574  0.39335368    -0.11500
C1028       C  0.62762450  0.32346603  0.35193271     0.05500
C1029       C  0.61128549  0.36507488  0.33625899    -0.06800
C1030       C  0.58253696  0.39057560  0.36279052    -0.07600
C1031       C  0.56948200  0.37666619  0.40580132    -0.02100
C1032       C  0.58295664  0.33358395  0.42031664     0.04700
N1033       N  0.56861096  0.31611868  0.46247946     0.67200
H1034       H  0.62319384  0.27537843  0.40577377     0.16100
H1035       H  0.57217278  0.42285781  0.34992874     0.15800
N1036       N  0.62463510  0.38306478  0.29390650     0.74900
O1037       O  0.53199862  0.29493763  0.46500031    -0.38500
O1038       O  0.59608795  0.31404124  0.49445613    -0.38500
O1039       O  0.59907614  0.37845393  0.26066582    -0.39200
O1040       O  0.65584431  0.41162176  0.29225376    -0.39200
loop_ 
_geom_bond_atom_site_label_1 
_geom_bond_atom_site_label_2 
_geom_bond_distance 
_geom_bond_site_symmetry_2 
_ccdc_geom_bond_type 
O1           C17   1.276       .  A
O1           Zn7   2.012       .  S
C2           O18   1.276       .  A
C2           O15   1.273       .  A
C2         C1031   1.497       .  S
O3           C16   1.281       .  A
O3          Cd10   2.117       .  S
O4           C22   1.272       .  A
O4          Cd13   2.044       .  S
O5           C19   1.273       .  A
O5           Cd9   2.064       .  S
O6           C17   1.273       .  A
O6           Cd9   2.059       .  S
Zn7          O18   2.060       .  S
Zn7          O20   2.018       .  S
Zn7          O12   1.960       .  S
O8           C19   1.274       .  A
O8          Cd13   2.078       .  S
Cd9          O11   2.063       .  S
Cd9          O12   1.999       .  S
Cd10         O14   2.126       .  S
Cd10         O23   2.122       .  S
Cd10         O12   2.027       .  S
O11          C21   1.273       .  A
O12         Cd13   1.985       .  S
Cd13         O15   2.048       .  S
O14          C21   1.283       .  A
C16          O20   1.274       .  A
C16         C975   1.484       .  S
C17         C986   1.480       .  S
C19         C958   1.485       .  S
C21        C1014   1.483       .  S
C22          O23   1.282       .  A
C22        C1003   1.487       .  S
O24          C40   1.274       .  A
O24         Zn30   2.011   1_455  S
C25          O41   1.273       .  A
C25          O38   1.273       .  A
C25         C916   1.485       .  S
O26          C39   1.280       .  A
O26         Cd33   2.113       .  S
O27          C45   1.272       .  A
O27         Cd36   2.039       .  S
O28          C42   1.274       .  A
O28         Cd32   2.066       .  S
O29          C40   1.273       .  A
O29         Cd32   2.081       .  S
Zn30         O41   2.025       .  S
Zn30         O43   1.993       .  S
Zn30         O35   1.935   1_655  S
O31          C42   1.271       .  A
O31         Cd36   2.057   1_455  S
Cd32         O34   2.047       .  S
Cd32         O35   1.998       .  S
Cd33         O37   2.111       .  S
Cd33         O46   2.122       .  S
Cd33         O35   2.034   1_655  S
O34          C44   1.273       .  A
O35         Cd36   1.981   1_455  S
Cd36         O38   2.048       .  S
O37          C44   1.280   1_655  A
C39          O43   1.273       .  A
C39         C944   1.481       .  S
C40         C874   1.490       .  S
C42         C905   1.471       .  S
C44         C933   1.473       .  S
C45          O46   1.281       .  A
C45         C888   1.489       .  S
O47          C63   1.274       .  A
O47         Zn53   2.023       .  S
C48          O64   1.277       .  A
C48          O61   1.271       .  A
C48         C818   1.489       .  S
O49          C62   1.282       .  A
O49         Cd56   2.119       .  S
O50          C68   1.270       .  A
O50         Cd59   2.031       .  S
O51          C65   1.274       .  A
O51         Cd55   2.073       .  S
O52          C63   1.274       .  A
O52         Cd55   2.063   1_556  S
Zn53         O64   2.045   1_556  S
Zn53         O66   2.017       .  S
Zn53         O58   1.955   1_556  S
O54          C65   1.271       .  A
O54         Cd59   2.056       .  S
Cd55         O57   2.065   1_554  S
Cd55         O58   1.995       .  S
Cd56         O60   2.121       .  S
Cd56         O69   2.126   1_556  S
Cd56         O58   2.030   1_556  S
O57          C67   1.274       .  A
O58         Cd59   1.984       .  S
Cd59         O61   2.045       .  S
O60          C67   1.282       .  A
C62          O66   1.275       .  A
C62         C846   1.485       .  S
C63         C793   1.478       .  S
C65         C807   1.474       .  S
C67         C860   1.482       .  S
C68          O69   1.282       .  A
C68         C832   1.481       .  S
O70          C86   1.274       .  A
O70         Zn76   2.030       .  S
C71          O87   1.274       .  A
C71          O84   1.276       .  A
C71         C748   1.492       .  S
O72          C85   1.279       .  A
O72         Cd79   2.110       .  S
O73          C91   1.274       .  A
O73         Cd82   2.055       .  S
O74          C88   1.275       .  A
O74         Cd78   2.081   1_565  S
O75          C86   1.275       .  A
O75         Cd78   2.054       .  S
Zn76         O87   2.017   1_545  S
Zn76         O89   1.997       .  S
Zn76         O81   1.943       .  S
O77          C88   1.275       .  A
O77         Cd82   2.071       .  S
Cd78         O80   2.053       .  S
Cd78         O81   1.990       .  S
Cd79         O83   2.103       .  S
Cd79         O92   2.109       .  S
Cd79         O81   2.031       .  S
O80          C90   1.272       .  A
O81         Cd82   1.998   1_545  S
Cd82         O84   2.086       .  S
O83          C90   1.279       .  A
C85          O89   1.273       .  A
C85         C734   1.479       .  S
C86         C762   1.486       .  S
C88         C779   1.487       .  S
C90         C706   1.473       .  S
C91          O92   1.280   1_565  A
C91         C723   1.484       .  S
O93         C109   1.277       .  A
O93         Zn99   2.040       .  S
C94         O110   1.277       .  A
C94         O107   1.274       .  A
C94         C678   1.487       .  S
O95         C108   1.280       .  A
O95        Cd102   2.108       .  S
O96         C114   1.273       .  A
O96        Cd105   2.060       .  S
O97         C111   1.275       .  A
O97        Cd101   2.064   1_556  S
O98         C109   1.274       .  A
O98        Cd101   2.092       .  S
Zn99        O110   2.036   1_454  S
Zn99        O112   1.992   1_455  S
Zn99        O104   1.936       .  S
O100        C111   1.274       .  A
O100       Cd105   2.064   1_455  S
Cd101       O103   2.044       .  S
Cd101       O104   1.999       .  S
Cd102       O106   2.115   1_655  S
Cd102       O115   2.127       .  S
Cd102       O104   2.038   1_655  S
O103        C113   1.273       .  A
O104       Cd105   1.997   1_454  S
Cd105       O107   2.065       .  S
O106        C113   1.280       .  A
C108        O112   1.273       .  A
C108        C664   1.481       .  S
C109        C625   1.502       .  S
C111        C650   1.476       .  S
C113        C636   1.482       .  S
C114        O115   1.282   1_556  A
C114        C692   1.490       .  S
O116        C132   1.274       .  A
O116       Zn122   2.024   1_455  S
C117        O133   1.275       .  A
C117        O130   1.275       .  A
C117        C608   1.488       .  S
O118        C131   1.278       .  A
O118       Cd125   2.111       .  S
O119        C137   1.273       .  A
O119       Cd128   2.054   1_655  S
O120        C134   1.278       .  A
O120       Cd124   2.100   1_565  S
O121        C132   1.276       .  A
O121       Cd124   2.075       .  S
Zn122       O133   2.010   1_545  S
Zn122       O135   2.005       .  S
Zn122       O127   1.936   1_655  S
O123        C134   1.275       .  A
O123       Cd128   2.072       .  S
Cd124       O126   2.056       .  S
Cd124       O127   1.998       .  S
Cd125       O129   2.092   1_655  S
Cd125       O138   2.087       .  S
Cd125       O127   2.031   1_655  S
O126        C136   1.275       .  A
O127       Cd128   1.995   1_545  S
Cd128       O130   2.082   1_455  S
O129        C136   1.278       .  A
C131        O135   1.273       .  A
C131        C583   1.492       .  S
C132        C555   1.485       .  S
C134        C594   1.497       .  S
C136        C541   1.477       .  S
C137        O138   1.277   1_565  A
C137        C566   1.471       .  S
O139        C155   1.275       .  A
O139       Zn145   2.045   1_565  S
C140        O156   1.276       .  A
C140        O153   1.278       .  A
C140        C510   1.501       .  S
O141        C154   1.277   1_554  A
O141       Cd148   2.096       .  S
O142        C160   1.276       .  A
O142       Cd151   2.073       .  S
O143        C157   1.275       .  A
O143       Cd147   2.069   1_545  S
O144        C155   1.274       .  A
O144       Cd147   2.054   1_556  S
Zn145       O156   2.018       .  S
Zn145       O158   1.995   1_545  S
Zn145       O150   1.942   1_556  S
O146        C157   1.277       .  A
O146       Cd151   2.078       .  S
Cd147       O149   2.066       .  S
Cd147       O150   1.989   1_565  S
Cd148       O152   2.105       .  S
Cd148       O161   2.097   1_565  S
Cd148       O150   2.029   1_565  S
O149        C159   1.273       .  A
O150       Cd151   2.010       .  S
Cd151       O153   2.107   1_554  S
O152        C159   1.278       .  A
C154        O158   1.273       .  A
C154        C499   1.475       .  S
C155        C524   1.494       .  S
C157        C468   1.486       .  S
C159        C485   1.481       .  S
C160        O161   1.278       .  A
C160        C454   1.478       .  S
O162        C178   1.274       .  A
O162       Zn168   2.016   1_465  S
C163        O179   1.272       .  A
C163        O176   1.275       .  A
C163        C373   1.483       .  S
O164        C177   1.281       .  A
O164       Cd171   2.116   1_554  S
O165        C183   1.273       .  A
O165       Cd174   2.051   1_655  S
O166        C180   1.275       .  A
O166       Cd170   2.083   1_546  S
O167        C178   1.274       .  A
O167       Cd170   2.066       .  S
Zn168       O179   2.007       .  S
Zn168       O181   2.006   1_545  S
Zn168       O173   1.940   1_655  S
O169        C180   1.274       .  A
O169       Cd174   2.066       .  S
Cd170       O172   2.049   1_554  S
Cd170       O173   1.996   1_565  S
Cd171       O175   2.114   1_655  S
Cd171       O184   2.110   1_565  S
Cd171       O173   2.033   1_666  S
O172        C182   1.274       .  A
O173       Cd174   1.989   1_554  S
Cd174       O176   2.075   1_456  S
O175        C182   1.281       .  A
C177        O181   1.273       .  A
C177        C440   1.491       .  S
C178        C387   1.482       .  S
C180        C398   1.491       .  S
C182        C412   1.482       .  S
C183        O184   1.280       .  A
C183        C426   1.483       .  S
O185        C201   1.276       .  A
O185       Zn191   2.034       .  S
C186        O202   1.276       .  A
C186        O199   1.275       .  A
C186       C1000   1.498       .  S
O187        C200   1.278       .  A
O187       Cd194   2.099       .  S
O188        C206   1.275       .  A
O188       Cd197   2.064       .  S
O189        C203   1.275       .  A
O189       Cd193   2.072       .  S
O190        C201   1.274       .  A
O190       Cd193   2.064       .  S
Zn191       O202   2.026       .  S
Zn191       O204   1.994       .  S
Zn191       O196   1.937       .  S
O192        C203   1.276       .  A
O192       Cd197   2.072       .  S
Cd193       O195   2.061       .  S
Cd193       O196   1.996       .  S
Cd194       O198   2.110       .  S
Cd194       O207   2.103       .  S
Cd194       O196   2.032       .  S
O195        C205   1.273       .  A
O196       Cd197   2.004       .  S
Cd197       O199   2.092       .  S
O198        C205   1.279       .  A
C200        O204   1.273       .  A
C200        C821   1.483       .  S
C201        C667   1.489       .  S
C203        C611   1.480       .  S
C205        C443   1.477       .  S
C206        O207   1.279       .  A
C206        C720   1.476       .  S
O208        C224   1.275       .  A
O208       Zn214   2.020       .  S
C209        O225   1.276       .  A
C209        O222   1.275       .  A
C209        C737   1.489       .  S
O210        C223   1.281       .  A
O210       Cd217   2.112       .  S
O211        C229   1.273       .  A
O211       Cd220   2.049       .  S
O212        C226   1.276       .  A
O212       Cd216   2.068       .  S
O213        C224   1.274       .  A
O213       Cd216   2.065       .  S
Zn214       O225   2.042       .  S
Zn214       O227   2.016       .  S
Zn214       O219   1.954       .  S
O215        C226   1.275       .  A
O215       Cd220   2.087       .  S
Cd216       O218   2.060       .  S
Cd216       O219   1.994       .  S
Cd217       O221   2.124       .  S
Cd217       O230   2.124       .  S
Cd217       O219   2.031       .  S
O218        C228   1.273       .  A
O219       Cd220   2.000       .  S
Cd220       O222   2.070       .  S
O221        C228   1.281       .  A
C223        O227   1.274       .  A
C223        C972   1.489       .  S
C224        C919   1.474       .  S
C226        C429   1.491       .  S
C228        C695   1.485       .  S
C229        O230   1.283       .  A
C229        C513   1.494       .  S
O231        C247   1.276       .  A
O231       Zn237   2.040       .  S
C232        O248   1.276       .  A
C232        O245   1.271       .  A
C232        C790   1.487       .  S
O233        C246   1.281       .  A
O233       Cd240   2.114       .  S
O234        C252   1.271       .  A
O234       Cd243   2.047       .  S
O235        C249   1.274       .  A
O235       Cd239   2.053       .  S
O236        C247   1.274       .  A
O236       Cd239   2.072       .  S
Zn237       O248   2.037       .  S
Zn237       O250   1.989       .  S
Zn237       O242   1.942       .  S
O238        C249   1.272       .  A
O238       Cd243   2.061       .  S
Cd239       O241   2.050       .  S
Cd239       O242   1.987       .  S
Cd240       O244   2.128       .  S
Cd240       O253   2.138       .  S
Cd240       O242   2.039       .  S
O241        C251   1.273       .  A
O242       Cd243   1.993       .  S
Cd243       O245   2.051       .  S
O244        C251   1.282       .  A
C246        O250   1.272       .  A
C246        C527   1.489       .  S
C247        C415   1.494       .  S
C249        C902   1.480       .  S
C251        C597   1.488       .  S
C252        O253   1.284       .  A
C252       C1017   1.492       .  S
O254        C270   1.272       .  A
O254       Zn260   2.010       .  S
C255        O271   1.271       .  A
C255        O268   1.273       .  A
C255        C989   1.473       .  S
O256        C269   1.278       .  A
O256       Cd263   2.098       .  S
O257        C275   1.273       .  A
O257       Cd266   2.057       .  S
O258        C272   1.274       .  A
O258       Cd262   2.060       .  S
O259        C270   1.274       .  A
O259       Cd262   2.078       .  S
Zn260       O271   2.004       .  S
Zn260       O273   1.977       .  S
Zn260       O265   1.929       .  S
O261        C272   1.273       .  A
O261       Cd266   2.067       .  S
Cd262       O264   2.045       .  S
Cd262       O265   1.989       .  S
Cd263       O267   2.117       .  S
Cd263       O276   2.126       .  S
Cd263       O265   2.031       .  S
O264        C274   1.273       .  A
O265       Cd266   1.991       .  S
Cd266       O268   2.054       .  S
O267        C274   1.281       .  A
C269        O273   1.271       .  A
C269        C765   1.476       .  S
C270        C538   1.487       .  S
C272        C653   1.481       .  S
C274        C401   1.478       .  S
C275        O276   1.283       .  A
C275        C863   1.494       .  S
O277        C293   1.275       .  A
O277       Zn283   2.027       .  S
C278        O294   1.274       .  A
C278        O291   1.275       .  A
C278        C776   1.486       .  S
O279        C292   1.281       .  A
O279       Cd286   2.114       .  S
O280        C298   1.273       .  A
O280       Cd289   2.048       .  S
O281        C295   1.272       .  A
O281       Cd285   2.057       .  S
O282        C293   1.272       .  A
O282       Cd285   2.053       .  S
Zn283       O294   2.014       .  S
Zn283       O296   2.004       .  S
Zn283       O288   1.942       .  S
O284        C295   1.276       .  A
O284       Cd289   2.086       .  S
Cd285       O287   2.048       .  S
Cd285       O288   1.987       .  S
Cd286       O290   2.139       .  S
Cd286       O299   2.112       .  S
Cd286       O288   2.034       .  S
O287        C297   1.272       .  A
O288       Cd289   2.002       .  S
Cd289       O291   2.082       .  S
O290        C297   1.284       .  A
C292        O296   1.273       .  A
C292        C482   1.484       .  S
C293        C384   1.479       .  S
C295        C930   1.478       .  S
C297        C622   1.495       .  S
C298        O299   1.281       .  A
C298        C961   1.477       .  S
O300        C316   1.276       .  A
O300       Zn306   2.043       .  S
C301        O317   1.277       .  A
C301        O314   1.272       .  A
C301        C835   1.490       .  S
O302        C315   1.281       .  A
O302       Cd309   2.116       .  S
O303        C321   1.274       .  A
O303       Cd312   2.051       .  S
O304        C318   1.274       .  A
O304       Cd308   2.070       .  S
O305        C316   1.275       .  A
O305       Cd308   2.070       .  S
Zn306       O317   2.030       .  S
Zn306       O319   1.986       .  S
Zn306       O311   1.936       .  S
O307        C318   1.274       .  A
O307       Cd312   2.064       .  S
Cd308       O310   2.057       .  S
Cd308       O311   1.994       .  S
Cd309       O313   2.117       .  S
Cd309       O322   2.114       .  S
Cd309       O311   2.036       .  S
O310        C320   1.273       .  A
O311       Cd312   1.997       .  S
Cd312       O314   2.073       .  S
O313        C320   1.281       .  A
C315        O319   1.271       .  A
C315       C1028   1.492       .  S
C316        C947   1.488       .  S
C318        C370   1.475       .  S
C320        C580   1.478       .  S
C321        O322   1.280       .  A
C321        C457   1.485       .  S
O323        C339   1.274       .  A
O323       Zn329   2.021       .  S
C324        O340   1.274       .  A
C324        O337   1.272       .  A
C324        C471   1.481       .  S
O325        C338   1.278       .  A
O325       Cd332   2.107       .  S
O326        C344   1.271       .  A
O326       Cd335   2.035       .  S
O327        C341   1.277       .  A
O327       Cd331   2.101       .  S
O328        C339   1.277       .  A
O328       Cd331   2.074       .  S
Zn329       O340   2.013       .  S
Zn329       O342   1.993       .  S
Zn329       O334   1.935       .  S
O330        C341   1.275       .  A
O330       Cd335   2.066       .  S
Cd331       O333   2.059       .  S
Cd331       O334   1.997       .  S
Cd332       O336   2.113       .  S
Cd332       O345   2.099       .  S
Cd332       O334   2.036       .  S
O333        C343   1.276       .  A
O334       Cd335   1.990       .  S
Cd335       O337   2.069       .  S
O336        C343   1.281       .  A
C338        O342   1.272       .  A
C338        C709   1.486       .  S
C339        C552   1.486       .  S
C341        C639   1.493       .  S
C343        C877   1.485       .  S
C344        O345   1.278       .  A
C344        C804   1.467       .  S
O346        C362   1.274       .  A
O346       Zn352   2.023       .  S
C347        O363   1.276       .  A
C347        O360   1.274       .  A
C347        C496   1.486       .  S
O348        C361   1.281       .  A
O348       Cd355   2.113       .  S
O349        C367   1.273       .  A
O349       Cd358   2.044       .  S
O350        C364   1.275       .  A
O350       Cd354   2.068       .  S
O351        C362   1.275       .  A
O351       Cd354   2.070       .  S
Zn352       O363   2.037       .  S
Zn352       O365   2.014       .  S
Zn352       O357   1.951       .  S
O353        C364   1.273       .  A
O353       Cd358   2.071       .  S
Cd354       O356   2.060       .  S
Cd354       O357   1.994       .  S
Cd355       O359   2.103       .  S
Cd355       O368   2.120       .  S
Cd355       O357   2.030       .  S
O356        C366   1.273       .  A
O357       Cd358   1.992       .  S
Cd358       O360   2.063       .  S
O359        C366   1.279       .  A
C361        O365   1.274       .  A
C361        C849   1.486       .  S
C362        C681   1.483       .  S
C364        C569   1.480       .  S
C366        C891   1.475       .  S
C367        O368   1.281       .  A
C367        C751   1.486       .  S
C369        C370   1.401       .  A
C369        C374   1.399       .  A
C369        H376   1.081       .  S
C370        C371   1.408       .  A
C371        C372   1.401       .  A
C371        N378   1.429       .  S
C372        C373   1.406       .  A
C372        H377   1.081       .  S
C373        C374   1.415       .  A
C374        N375   1.430       .  S
N375        O379   1.262   1_655  A
N375        O380   1.262       .  A
N378        O382   1.262       .  A
N378        O381   1.262       .  A
C383        C384   1.404       .  A
C383        C388   1.400       .  A
C383        H390   1.081       .  S
C384        C385   1.411       .  A
C385        C386   1.399       .  A
C385        N392   1.430       .  S
C386        C387   1.405       .  A
C386        H391   1.081       .  S
C387        C388   1.413       .  A
C388        N389   1.429       .  S
N389        O393   1.262   1_565  A
N389        O394   1.262       .  A
N392        O396   1.262       .  A
N392        O395   1.262       .  A
C397        C398   1.411       .  A
C397        C402   1.408       .  A
C397        H404   1.084       .  S
C398        C399   1.414       .  A
C399        C400   1.396       .  A
C399        N406   1.429       .  S
C400        C401   1.401       .  A
C400        H405   1.086       .  S
C401        C402   1.410       .  A
C402        N403   1.429       .  S
N403        O407   1.262       .  A
N403        O408   1.262       .  A
N406        O410   1.262       .  A
N406        O409   1.262   1_556  A
C411        C412   1.404       .  A
C411        C416   1.400       .  A
C411        H418   1.082       .  S
C412        C413   1.409       .  A
C413        C414   1.406       .  A
C413        N420   1.429       .  S
C414        C415   1.412       .  A
C414        H419   1.081       .  S
C415        C416   1.414       .  A
C416        N417   1.429       .  S
N417        O421   1.262       .  A
N417        O422   1.262       .  A
N420        O424   1.262   1_455  A
N420        O423   1.262       .  A
C425        C426   1.404       .  A
C425        C430   1.408       .  A
C425        H432   1.082       .  S
C426        C427   1.412       .  A
C427        C428   1.397       .  A
C427        N434   1.430       .  S
C428        C429   1.404       .  A
C428        H433   1.082       .  S
C429        C430   1.418       .  A
C430        N431   1.429       .  S
N431        O435   1.262       .  A
N431        O436   1.262       .  A
N434        O438   1.262       .  A
N434        O437   1.262   1_655  A
C439        C440   1.407       .  A
C439        C444   1.408       .  A
C439        H446   1.081       .  S
C440        C441   1.417       .  A
C441        C442   1.401       .  A
C441        N448   1.430       .  S
C442        C443   1.399       .  A
C442        H447   1.082       .  S
C443        C444   1.410       .  A
C444        N445   1.429       .  S
N445        O449   1.262       .  A
N445        O450   1.262       .  A
N448        O452   1.262       .  A
N448        O451   1.262   1_565  A
C453        C454   1.405       .  A
C453        C458   1.406       .  A
C453        H460   1.086       .  S
C454        C455   1.407       .  A
C455        C456   1.400       .  A
C455        N462   1.429       .  S
C456        C457   1.406       .  A
C456        H461   1.087       .  S
C457        C458   1.411       .  A
C458        N459   1.429       .  S
N459        O463   1.262       .  A
N459        O464   1.262       .  A
N462        O466   1.262       .  A
N462        O465   1.262       .  A
C467        C468   1.406       .  A
C467        C472   1.402       .  A
C467        H474   1.082       .  S
C468        C469   1.415       .  A
C469        C470   1.399       .  A
C469        N476   1.429       .  S
C470        C471   1.403       .  A
C470        H475   1.082       .  S
C471        C472   1.413       .  A
C472        N473   1.429       .  S
N473        O477   1.261       .  A
N473        O478   1.262       .  A
N476        O480   1.262       .  A
N476        O479   1.262       .  A
C481        C482   1.402       .  A
C481        C486   1.405       .  A
C481        H488   1.082       .  S
C482        C483   1.415       .  A
C483        C484   1.404       .  A
C483        N490   1.430       .  S
C484        C485   1.402       .  A
C484        H489   1.082       .  S
C485        C486   1.412       .  A
C486        N487   1.429       .  S
N487        O491   1.262       .  A
N487        O492   1.262       .  A
N490        O494   1.262       .  A
N490        O493   1.262       .  A
C495        C496   1.408       .  A
C495        C500   1.404       .  A
C495        H502   1.083       .  S
C496        C497   1.414       .  A
C497        C498   1.398       .  A
C497        N504   1.430       .  S
C498        C499   1.402       .  A
C498        H503   1.084       .  S
C499        C500   1.408       .  A
C500        N501   1.428       .  S
N501        O505   1.262       .  A
N501        O506   1.261   1_556  A
N504        O508   1.262       .  A
N504        O507   1.262       .  A
C509        C510   1.407       .  A
C509        C514   1.398       .  A
C509        H516   1.080       .  S
C510        C511   1.418       .  A
C511        C512   1.412       .  A
C511        N518   1.428       .  S
C512        C513   1.407       .  A
C512        H517   1.080       .  S
C513        C514   1.416       .  A
C514        N515   1.431       .  S
N515        O519   1.262       .  A
N515        O520   1.262       .  A
N518        O522   1.262       .  A
N518        O521   1.262       .  A
C523        C524   1.405       .  A
C523        C528   1.394       .  A
C523        H530   1.084       .  S
C524        C525   1.417       .  A
C525        C526   1.409       .  A
C525        N532   1.429       .  S
C526        C527   1.406       .  A
C526        H531   1.084       .  S
C527        C528   1.415       .  A
C528        N529   1.430       .  S
N529        O533   1.262       .  A
N529        O534   1.262       .  A
N532        O536   1.262       .  A
N532        O535   1.262       .  A
C537        C538   1.409       .  A
C537        C542   1.405       .  A
C537        H544   1.080       .  S
C538        C539   1.413       .  A
C539        C540   1.397       .  A
C539        N546   1.430       .  S
C540        C541   1.402       .  A
C540        H545   1.081       .  S
C541        C542   1.409       .  A
C542        N543   1.429       .  S
N543        O547   1.262       .  A
N543        O548   1.262   1_455  A
N546        O550   1.262       .  A
N546        O549   1.262       .  A
C551        C552   1.405       .  A
C551        C556   1.401       .  A
C551        H558   1.080       .  S
C552        C553   1.414       .  A
C553        C554   1.402       .  A
C553        N560   1.429       .  S
C554        C555   1.405       .  A
C554        H559   1.080       .  S
C555        C556   1.414       .  A
C556        N557   1.429       .  S
N557        O561   1.262       .  A
N557        O562   1.262       .  A
N560        O564   1.262       .  A
N560        O563   1.262       .  A
C565        C566   1.400       .  A
C565        C570   1.401       .  A
C565        H572   1.086       .  S
C566        C567   1.409       .  A
C567        C568   1.398       .  A
C567        N574   1.429       .  S
C568        C569   1.404       .  A
C568        H573   1.085       .  S
C569        C570   1.415       .  A
C570        N571   1.429       .  S
N571        O575   1.262       .  A
N571        O576   1.262       .  A
N574        O578   1.262   1_655  A
N574        O577   1.262       .  A
C579        C580   1.405       .  A
C579        C584   1.408       .  A
C579        H586   1.083       .  S
C580        C581   1.407       .  A
C581        C582   1.401       .  A
C581        N588   1.429       .  S
C582        C583   1.409       .  A
C582        H587   1.083       .  S
C583        C584   1.413       .  A
C584        N585   1.428       .  S
N585        O589   1.262       .  A
N585        O590   1.262       .  A
N588        O592   1.262       .  A
N588        O591   1.262       .  A
C593        C594   1.411       .  A
C593        C598   1.411       .  A
C593        H600   1.084       .  S
C594        C595   1.415       .  A
C595        C596   1.399       .  A
C595        N602   1.430       .  S
C596        C597   1.403       .  A
C596        H601   1.085       .  S
C597        C598   1.411       .  A
C598        N599   1.428       .  S
N599        O603   1.262       .  A
N599        O604   1.262       .  A
N602        O606   1.262       .  A
N602        O605   1.262       .  A
C607        C608   1.407       .  A
C607        C612   1.399       .  A
C607        H614   1.083       .  S
C608        C609   1.415       .  A
C609        C610   1.402       .  A
C609        N616   1.429       .  S
C610        C611   1.404       .  A
C610        H615   1.083       .  S
C611        C612   1.411       .  A
C612        N613   1.430       .  S
N613        O617   1.262       .  A
N613        O618   1.262       .  A
N616        O620   1.262       .  A
N616        O619   1.262       .  A
C621        C622   1.406       .  A
C621        C626   1.413       .  A
C621        H628   1.082       .  S
C622        C623   1.415       .  A
C623        C624   1.401       .  A
C623        N630   1.430       .  S
C624        C625   1.405       .  A
C624        H629   1.082       .  S
C625        C626   1.420       .  A
C626        N627   1.429       .  S
N627        O631   1.262       .  A
N627        O632   1.262       .  A
N630        O634   1.262       .  A
N630        O633   1.262       .  A
C635        C636   1.401       .  A
C635        C640   1.396       .  A
C635        H642   1.082       .  S
C636        C637   1.410       .  A
C637        C638   1.411       .  A
C637        N644   1.429       .  S
C638        C639   1.412       .  A
C638        H643   1.082       .  S
C639        C640   1.414       .  A
C640        N641   1.430       .  S
N641        O645   1.262       .  A
N641        O646   1.262       .  A
N644        O648   1.262       .  A
N644        O647   1.262   1_455  A
C649        C650   1.403       .  A
C649        C654   1.400       .  A
C649        H656   1.079       .  S
C650        C651   1.411       .  A
C651        C652   1.398       .  A
C651        N658   1.430       .  S
C652        C653   1.405       .  A
C652        H657   1.079       .  S
C653        C654   1.413       .  A
C654        N655   1.429       .  S
N655        O659   1.262       .  A
N655        O660   1.262       .  A
N658        O662   1.262       .  A
N658        O661   1.262       .  A
C663        C664   1.403       .  A
C663        C668   1.397       .  A
C663        H670   1.085       .  S
C664        C665   1.409       .  A
C665        C666   1.406       .  A
C665        N672   1.429       .  S
C666        C667   1.410       .  A
C666        H671   1.084       .  S
C667        C668   1.414       .  A
C668        N669   1.430       .  S
N669        O673   1.262       .  A
N669        O674   1.262       .  A
N672        O676   1.262       .  A
N672        O675   1.262       .  A
C677        C678   1.407       .  A
C677        C682   1.403       .  A
C677        H684   1.082       .  S
C678        C679   1.414       .  A
C679        C680   1.400       .  A
C679        N686   1.429       .  S
C680        C681   1.404       .  A
C680        H685   1.082       .  S
C681        C682   1.411       .  A
C682        N683   1.429       .  S
N683        O687   1.262       .  A
N683        O688   1.262       .  A
N686        O690   1.262   1_655  A
N686        O689   1.262       .  A
C691        C692   1.407       .  A
C691        C696   1.405       .  A
C691        H698   1.087       .  S
C692        C693   1.411       .  A
C693        C694   1.407       .  A
C693        N700   1.427       .  S
C694        C695   1.406       .  A
C694        H699   1.087       .  S
C695        C696   1.409       .  A
C696        N697   1.429       .  S
N697        O701   1.262       .  A
N697        O702   1.262       .  A
N700        O704   1.262       .  A
N700        O703   1.261   1_556  A
C705        C706   1.405       .  A
C705        C710   1.406       .  A
C705        H712   1.080       .  S
C706        C707   1.405       .  A
C707        C708   1.398       .  A
C707        N714   1.429       .  S
C708        C709   1.408       .  A
C708        H713   1.080       .  S
C709        C710   1.412       .  A
C710        N711   1.429       .  S
N711        O715   1.262       .  A
N711        O716   1.262       .  A
N714        O718   1.261       .  A
N714        O717   1.262       .  A
C719        C720   1.405       .  A
C719        C724   1.405       .  A
C719        H726   1.080       .  S
C720        C721   1.407       .  A
C721        C722   1.402       .  A
C721        N728   1.429       .  S
C722        C723   1.408       .  A
C722        H727   1.081       .  S
C723        C724   1.410       .  A
C724        N725   1.428       .  S
N725        O729   1.262       .  A
N725        O730   1.262   1_565  A
N728        O732   1.262       .  A
N728        O731   1.262       .  A
C733        C734   1.401       .  A
C733        C738   1.398       .  A
C733        H740   1.085       .  S
C734        C735   1.410       .  A
C735        C736   1.408       .  A
C735        N742   1.429       .  S
C736        C737   1.410       .  A
C736        H741   1.085       .  S
C737        C738   1.413       .  A
C738        N739   1.429       .  S
N739        O743   1.262       .  A
N739        O744   1.262       .  A
N742        O746   1.262       .  A
N742        O745   1.262       .  A
C747        C748   1.410       .  A
C747        C752   1.409       .  A
C747        H754   1.081       .  S
C748        C749   1.414       .  A
C749        C750   1.397       .  A
C749        N756   1.430       .  S
C750        C751   1.404       .  A
C750        H755   1.082       .  S
C751        C752   1.411       .  A
C752        N753   1.428       .  S
N753        O757   1.262       .  A
N753        O758   1.262       .  A
N756        O760   1.262       .  A
N756        O759   1.262       .  A
C761        C762   1.404       .  A
C761        C766   1.393       .  A
C761        H768   1.084       .  S
C762        C763   1.417       .  A
C763        C764   1.406       .  A
C763        N770   1.429       .  S
C764        C765   1.403       .  A
C764        H769   1.084       .  S
C765        C766   1.410       .  A
C766        N767   1.430       .  S
N767        O771   1.262       .  A
N767        O772   1.262       .  A
N770        O774   1.262       .  A
N770        O773   1.262       .  A
C775        C776   1.405       .  A
C775        C780   1.402       .  A
C775        H782   1.082       .  S
C776        C777   1.412       .  A
C777        C778   1.402       .  A
C777        N784   1.429       .  S
C778        C779   1.406       .  A
C778        H783   1.082       .  S
C779        C780   1.414       .  A
C780        N781   1.429       .  S
N781        O785   1.261       .  A
N781        O786   1.262   1_565  A
N784        O788   1.262       .  A
N784        O787   1.262       .  A
C789        C790   1.408       .  A
C789        C794   1.403       .  A
C789        H796   1.078       .  S
C790        C791   1.416       .  A
C791        C792   1.398       .  A
C791        N798   1.430       .  S
C792        C793   1.402       .  A
C792        H797   1.079       .  S
C793        C794   1.409       .  A
C794        N795   1.429       .  S
N795        O799   1.262       .  A
N795        O800   1.262   1_556  A
N798        O802   1.262       .  A
N798        O801   1.262       .  A
C803        C804   1.402       .  A
C803        C808   1.398       .  A
C803        H810   1.081       .  S
C804        C805   1.409       .  A
C805        C806   1.401       .  A
C805        N812   1.430       .  S
C806        C807   1.405       .  A
C806        H811   1.081       .  S
C807        C808   1.408       .  A
C808        N809   1.429       .  S
N809        O813   1.262       .  A
N809        O814   1.262       .  A
N812        O816   1.261       .  A
N812        O815   1.262       .  A
C817        C818   1.408       .  A
C817        C822   1.406       .  A
C817        H824   1.082       .  S
C818        C819   1.416       .  A
C819        C820   1.396       .  A
C819        N826   1.430       .  S
C820        C821   1.403       .  A
C820        H825   1.083       .  S
C821        C822   1.410       .  A
C822        N823   1.427       .  S
N823        O827   1.262       .  A
N823        O828   1.261       .  A
N826        O830   1.262       .  A
N826        O829   1.262       .  A
C831        C832   1.404       .  A
C831        C836   1.409       .  A
C831        H838   1.082       .  S
C832        C833   1.411       .  A
C833        C834   1.396       .  A
C833        N840   1.429       .  S
C834        C835   1.403       .  A
C834        H839   1.082       .  S
C835        C836   1.419       .  A
C836        N837   1.430       .  S
N837        O841   1.262       .  A
N837        O842   1.262       .  A
N840        O844   1.262       .  A
N840        O843   1.262       .  A
C845        C846   1.403       .  A
C845        C850   1.406       .  A
C845        H852   1.081       .  S
C846        C847   1.413       .  A
C847        C848   1.406       .  A
C847        N854   1.429       .  S
C848        C849   1.403       .  A
C848        H853   1.081       .  S
C849        C850   1.415       .  A
C850        N851   1.430       .  S
N851        O855   1.262       .  A
N851        O856   1.262       .  A
N854        O858   1.262       .  A
N854        O857   1.262       .  A
C859        C860   1.400       .  A
C859        C864   1.404       .  A
C859        H866   1.083       .  S
C860        C861   1.412       .  A
C861        C862   1.408       .  A
C861        N868   1.428       .  S
C862        C863   1.405       .  A
C862        H867   1.082       .  S
C863        C864   1.419       .  A
C864        N865   1.430       .  S
N865        O869   1.262       .  A
N865        O870   1.262       .  A
N868        O872   1.262       .  A
N868        O871   1.262       .  A
C873        C874   1.404       .  A
C873        C878   1.396       .  A
C873        H880   1.079       .  S
C874        C875   1.417       .  A
C875        C876   1.410       .  A
C875        N882   1.429       .  S
C876        C877   1.407       .  A
C876        H881   1.078       .  S
C877        C878   1.411       .  A
C878        N879   1.430       .  S
N879        O883   1.262       .  A
N879        O884   1.262       .  A
N882        O886   1.262       .  A
N882        O885   1.262       .  A
C887        C888   1.409       .  A
C887        C892   1.398       .  A
C887        H894   1.084       .  S
C888        C889   1.413       .  A
C889        C890   1.408       .  A
C889        N896   1.428       .  S
C890        C891   1.405       .  A
C890        H895   1.083       .  S
C891        C892   1.405       .  A
C892        N893   1.430       .  S
N893        O897   1.262       .  A
N893        O898   1.262       .  A
N896        O900   1.262       .  A
N896        O899   1.262       .  A
C901        C902   1.406       .  A
C901        C906   1.396       .  A
C901        H908   1.082       .  S
C902        C903   1.415       .  A
C903        C904   1.399       .  A
C903        N910   1.429       .  S
C904        C905   1.402       .  A
C904        H909   1.082       .  S
C905        C906   1.409       .  A
C906        N907   1.430       .  S
N907        O911   1.262       .  A
N907        O912   1.262       .  A
N910        O914   1.262       .  A
N910        O913   1.262       .  A
C915        C916   1.406       .  A
C915        C920   1.396       .  A
C915        H922   1.082       .  S
C916        C917   1.415       .  A
C917        C918   1.403       .  A
C917        N924   1.429       .  S
C918        C919   1.402       .  A
C918        H923   1.082       .  S
C919        C920   1.409       .  A
C920        N921   1.429       .  S
N921        O925   1.262       .  A
N921        O926   1.262       .  A
N924        O928   1.262       .  A
N924        O927   1.262       .  A
C929        C930   1.402       .  A
C929        C934   1.402       .  A
C929        H936   1.088       .  S
C930        C931   1.415       .  A
C931        C932   1.403       .  A
C931        N938   1.431       .  S
C932        C933   1.401       .  A
C932        H937   1.088       .  S
C933        C934   1.409       .  A
C934        N935   1.430       .  S
N935        O939   1.262       .  A
N935        O940   1.262       .  A
N938        O942   1.262       .  A
N938        O941   1.262       .  A
C943        C944   1.403       .  A
C943        C948   1.398       .  A
C943        H950   1.082       .  S
C944        C945   1.410       .  A
C945        C946   1.409       .  A
C945        N952   1.429       .  S
C946        C947   1.409       .  A
C946        H951   1.081       .  S
C947        C948   1.411       .  A
C948        N949   1.429       .  S
N949        O953   1.261       .  A
N949        O954   1.262       .  A
N952        O956   1.262       .  A
N952        O955   1.262       .  A
C957        C958   1.409       .  A
C957        C962   1.406       .  A
C957        H964   1.074       .  S
C958        C959   1.412       .  A
C959        C960   1.399       .  A
C959        N966   1.430       .  S
C960        C961   1.404       .  A
C960        H965   1.075       .  S
C961        C962   1.409       .  A
C962        N963   1.429       .  S
N963        O967   1.262       .  A
N963        O968   1.262       .  A
N966        O970   1.262       .  A
N966        O969   1.262       .  A
C971        C972   1.404       .  A
C971        C976   1.406       .  A
C971        H978   1.083       .  S
C972        C973   1.416       .  A
C973        C974   1.404       .  A
C973        N980   1.429       .  S
C974        C975   1.401       .  A
C974        H979   1.084       .  S
C975        C976   1.413       .  A
C976        N977   1.429       .  S
N977        O981   1.262       .  A
N977        O982   1.262       .  A
N980        O984   1.262       .  A
N980        O983   1.262       .  A
C985        C986   1.406       .  A
C985        C990   1.397       .  A
C985        H992   1.079       .  S
C986        C987   1.414       .  A
C987        C988   1.398       .  A
C987        N994   1.429       .  S
C988        C989   1.402       .  A
C988        H993   1.079       .  S
C989        C990   1.411       .  A
C990        N991   1.430       .  S
N991        O995   1.262       .  A
N991        O996   1.262       .  A
N994        O998   1.262       .  A
N994        O997   1.262       .  A
C999       C1000   1.407       .  A
C999       C1004   1.399       .  A
C999       H1006   1.081       .  S
C1000      C1001   1.419       .  A
C1001      C1002   1.409       .  A
C1001      N1008   1.428       .  S
C1002      C1003   1.403       .  A
C1002      H1007   1.081       .  S
C1003      C1004   1.414       .  A
C1004      N1005   1.431       .  S
N1005      O1009   1.262       .  A
N1005      O1010   1.262       .  A
N1008      O1012   1.262       .  A
N1008      O1011   1.262       .  A
C1013      C1014   1.399       .  A
C1013      C1018   1.403       .  A
C1013      H1020   1.084       .  S
C1014      C1015   1.414       .  A
C1015      C1016   1.410       .  A
C1015      N1022   1.429       .  S
C1016      C1017   1.405       .  A
C1016      H1021   1.084       .  S
C1017      C1018   1.418       .  A
C1018      N1019   1.429       .  S
N1019      O1023   1.262       .  A
N1019      O1024   1.261       .  A
N1022      O1026   1.262       .  A
N1022      O1025   1.262       .  A
C1027      C1028   1.408       .  A
C1027      C1032   1.411       .  A
C1027      H1034   1.084       .  S
C1028      C1029   1.416       .  A
C1029      C1030   1.393       .  A
C1029      N1036   1.431       .  S
C1030      C1031   1.405       .  A
C1030      H1035   1.084       .  S
C1031      C1032   1.417       .  A
C1032      N1033   1.428       .  S
N1033      O1037   1.262       .  A
N1033      O1038   1.262       .  A
N1036      O1040   1.262       .  A
N1036      O1039   1.262       .  A
