geometry optimzed in LAMMPS
_audit_creation_date              2020-11-30 
_audit_creation_method            'lammps2cif' 
_symmetry_space_group_name_H-M    'P1' 
_symmetry_Int_Tables_number       1 
_symmetry_cell_setting            triclinic 
loop_ 
_symmetry_equiv_pos_as_xyz 
  x,y,z 
_cell_length_a                    41.59092669 
_cell_length_b                    51.76909331035297 
_cell_length_c                    41.49890804533626 
_cell_angle_alpha                 89.9943631701877 
_cell_angle_beta                  89.99802230474657 
_cell_angle_gamma                 89.91164773902139 
loop_ 
_atom_site_label 
_atom_site_type_symbol 
_atom_site_fract_x 
_atom_site_fract_y 
_atom_site_fract_z 
_atom_site_charge 
N1          N  0.46247298  0.47067195  0.43966994    -0.06500
N2          N  0.45720319  0.45226205  0.41833823    -0.58600
N3          N  0.43957505  0.02974897  0.46227935    -0.06200
N4          N  0.41829235  0.04822602  0.45708595    -0.60700
N5          N  0.46186131  0.02995307  0.43978000    -0.05800
N6          N  0.45620317  0.04855820  0.41875580    -0.58600
N7          N  0.44013712  0.47045166  0.46212085    -0.05500
N8          N  0.41910100  0.45190756  0.45647474    -0.61100
C9          C  0.43018873  0.44070209  0.42921224     0.95700
C10         C  0.42906952  0.05980713  0.42996329     0.95500
N11         N  0.46240771  0.03000915  0.06047357    -0.06700
N12         N  0.45683122  0.04868966  0.08143512    -0.59200
N13         N  0.44056724  0.47047019  0.03827745    -0.04800
N14         N  0.41960685  0.45187979  0.04390490    -0.60500
N15         N  0.46295242  0.47071173  0.06069177    -0.06700
N16         N  0.45769138  0.45229838  0.08205241    -0.59500
N17         N  0.44000602  0.02975651  0.03807790    -0.04400
N18         N  0.41878399  0.04826768  0.04324899    -0.60500
Mn19       Mn  0.43912095  0.50006116  0.00021107     1.18400
C20         C  0.42965802  0.05992787  0.07025657     0.97800
C21         C  0.43069171  0.44069464  0.07116325     0.98400
N22         N  0.03769892  0.03023543  0.43938822    -0.06700
N23         N  0.04290661  0.04874658  0.41815364    -0.63000
N24         N  0.06058063  0.47090989  0.46154704    -0.05500
N25         N  0.08165841  0.45234205  0.45592551    -0.63700
N26         N  0.03804406  0.47095577  0.43930000    -0.06200
N27         N  0.04324400  0.45241903  0.41810129    -0.63300
N28         N  0.06029063  0.03020847  0.46158189    -0.05100
N29         N  0.08138333  0.04869347  0.45591285    -0.64000
Mn30       Mn  0.00001702  0.00048284  0.43861651     1.10700
C31         C  0.07012407  0.06011343  0.42887668     0.99000
C32         C  0.07041625  0.44095910  0.42886410     0.99100
N33         N  0.03878947  0.47093502  0.06023507    -0.06300
N34         N  0.04439375  0.45231767  0.08126707    -0.61600
N35         N  0.06064271  0.03022208  0.03748047    -0.05600
N36         N  0.08178562  0.04874406  0.04264556    -0.58400
N37         N  0.03846675  0.03026907  0.06010552    -0.06900
N38         N  0.04410774  0.04882116  0.08120170    -0.61200
N39         N  0.06093401  0.47093679  0.03757939    -0.05900
N40         N  0.08205974  0.45233262  0.04269628    -0.58400
Mn41       Mn  0.00066189  0.00050866  0.06138851     1.20200
Mn42       Mn  0.06156678  0.00055734  0.99956299     1.10100
Cl43       Cl  0.00034085  0.00040167  0.99995603    -0.86300
C44         C  0.07134331  0.44086730  0.06991531     0.96000
C45         C  0.07108070  0.06020136  0.06987797     0.95800
N46         N  0.28749692  0.28013763  0.18911787    -0.06500
N47         N  0.29269358  0.29852257  0.16769921    -0.58600
N48         N  0.31071992  0.22117592  0.21177639    -0.06200
N49         N  0.33206002  0.20276462  0.20653505    -0.60700
N50         N  0.28828385  0.22085336  0.18941615    -0.05800
N51         N  0.29395607  0.20222551  0.16840835    -0.58600
N52         N  0.30991273  0.28044531  0.21150044    -0.05500
N53         N  0.33082601  0.29905163  0.20579651    -0.61100
C54         C  0.31968478  0.31017848  0.17852635     0.95700
C55         C  0.32122152  0.19109122  0.17952207     0.95500
N56         N  0.28901486  0.22100466  0.31011767    -0.06700
N57         N  0.29476587  0.20242510  0.33114965    -0.59200
N58         N  0.31045148  0.28055097  0.28764504    -0.04800
N59         N  0.33135878  0.29921283  0.29316480    -0.60500
N60         N  0.28815692  0.28029360  0.31013565    -0.06700
N61         N  0.29332399  0.29879582  0.33136807    -0.59500
N62         N  0.31126708  0.22124264  0.28758494    -0.04400
N63         N  0.33262056  0.20281356  0.29276446    -0.60500
Mn64       Mn  0.31153678  0.25089873  0.24960881     1.18400
C65         C  0.32192059  0.19122751  0.31991542     0.97800
C66         C  0.32023433  0.31045004  0.32039223     0.98400
N67         N  0.21221082  0.22038974  0.18995057    -0.06700
N68         N  0.20661098  0.20179114  0.16890735    -0.63000
N69         N  0.18954360  0.27969621  0.21240540    -0.05500
N70         N  0.16832072  0.29822751  0.20727034    -0.63700
N71         N  0.21165042  0.27972238  0.18971274    -0.06200
N72         N  0.20592446  0.29828417  0.16863914    -0.63300
N73         N  0.19006908  0.22041334  0.21260970    -0.05100
N74         N  0.16899174  0.20182935  0.20752120    -0.64000
Mn75       Mn  0.24989697  0.25024683  0.18854011     1.10700
C76         C  0.17970106  0.19035832  0.18029996     0.99000
C77         C  0.17894042  0.30967452  0.18000086     0.99100
N78         N  0.21261656  0.27981678  0.31065959    -0.06300
N79         N  0.20740630  0.29836557  0.33183781    -0.61600
N80         N  0.19054218  0.22050965  0.28849520    -0.05600
N81         N  0.16949883  0.20200368  0.29422627    -0.58400
N82         N  0.21316764  0.22053783  0.31065397    -0.06900
N83         N  0.20802839  0.20204243  0.33193119    -0.61200
N84         N  0.19004689  0.27980624  0.28844667    -0.05900
N85         N  0.16893343  0.29834783  0.29407315    -0.58400
Mn86       Mn  0.25074705  0.25038030  0.31131258     1.20200
Mn87       Mn  0.18909689  0.25011876  0.25047512     1.09100
Cl88       Cl  0.25032034  0.25040954  0.24997180    -0.86300
C89         C  0.18019095  0.30977328  0.32110156     0.96000
C90         C  0.18081835  0.19062759  0.32126325     0.95800
C91         C  0.10014946  0.10815475  0.12161733     0.29400
C92         C  0.10088613  0.12363648  0.14933466    -0.37000
C93         C  0.12697571  0.14063068  0.15182871     0.15400
C94         C  0.15071118  0.14231084  0.12865786     0.21200
C95         C  0.14997718  0.12682631  0.10094466    -0.35100
C96         C  0.12388837  0.10983328  0.09844996     0.15300
O97         O  0.07817349  0.09073892  0.11450302    -0.27100
C98         C  0.08798686  0.08118649  0.08642387     0.05100
C99         C  0.11625413  0.09233016  0.07524693    -0.32000
O100        O  0.17266309  0.15975200  0.13574588    -0.23800
C101        C  0.16284167  0.16931923  0.16381326    -0.03800
C102        C  0.13459217  0.15815786  0.17501148    -0.18200
H103        H  0.08243038  0.12250764  0.16765782     0.19800
H104        H  0.16842565  0.12796449  0.08261222     0.18100
H105        H  0.12941958  0.08792706  0.05341858     0.18100
H106        H  0.12141502  0.16257808  0.19682492     0.13900
C107        C  0.12198342  0.10800262  0.40014141     0.29400
C108        C  0.14972565  0.12336019  0.39957235    -0.37000
C109        C  0.15220400  0.14067867  0.37373008     0.15400
C110        C  0.12899428  0.14275578  0.35007432     0.21200
C111        C  0.10125426  0.12740172  0.35064475    -0.35100
C112        C  0.09877699  0.11008517  0.37648343     0.15300
O113        O  0.11485064  0.09037941  0.42190868    -0.27100
C114        C  0.08672761  0.08109793  0.41204335     0.05100
C115        C  0.07553642  0.09261211  0.38393568    -0.32000
O116        O  0.13612216  0.16036692  0.32829598    -0.23800
C117        C  0.16424662  0.16965237  0.33814412    -0.03800
C118        C  0.17544657  0.15815136  0.36625916    -0.18200
H119        H  0.16807915  0.12189971  0.41796598     0.19800
H120        H  0.08290271  0.12886008  0.33224888     0.18100
H121        H  0.05365014  0.08850652  0.37079546     0.18100
H122        H  0.19733944  0.16226197  0.37938771     0.13900
C123        C  0.15027891  0.35802390  0.12850093     0.29400
C124        C  0.14979184  0.37366619  0.10091299    -0.37000
C125        C  0.12375091  0.39076355  0.09834768     0.15400
C126        C  0.09983139  0.39239182  0.12133836     0.21200
C127        C  0.10031426  0.37674351  0.14892544    -0.35100
C128        C  0.12635978  0.35964615  0.15149296     0.15300
O129        O  0.17216545  0.34048887  0.13562895    -0.27100
C130        C  0.16211920  0.33079326  0.16353808     0.05100
C131        C  0.13378797  0.34197412  0.17460446    -0.32000
O132        O  0.07798330  0.40996683  0.11423226    -0.23800
C133        C  0.08806131  0.41967671  0.08633992    -0.03800
C134        C  0.11636616  0.40846445  0.07526287    -0.18200
H135        H  0.16839760  0.37257809  0.08273309     0.19800
H136        H  0.08171970  0.37784500  0.16711813     0.18100
H137        H  0.12045316  0.33748867  0.19629302     0.18100
H138        H  0.12973087  0.41296588  0.05359745     0.13900
C139        C  0.40080946  0.10842252  0.12145218     0.29400
C140        C  0.40011552  0.12410366  0.14899712    -0.37000
C141        C  0.37404416  0.14119659  0.15133088     0.15400
C142        C  0.35028187  0.14278685  0.12817175     0.21200
C143        C  0.35098383  0.12711495  0.10062103    -0.35100
C144        C  0.37705109  0.11002003  0.09828993     0.15300
O145        O  0.42272738  0.09085071  0.11453386    -0.27100
C146        C  0.41284505  0.08110933  0.08659382     0.05100
C147        C  0.38460593  0.09229573  0.07530465    -0.32000
O148        O  0.32830616  0.16029851  0.13513661    -0.23800
C149        C  0.33815361  0.17001235  0.16310283    -0.03800
C150        C  0.36643485  0.15887193  0.17435958    -0.18200
H151        H  0.41857227  0.12302937  0.16733068     0.19800
H152        H  0.33250824  0.12816955  0.08230460     0.18100
H153        H  0.37140332  0.08777557  0.05354940     0.18100
H154        H  0.37960326  0.16336433  0.19614607     0.13900
C155        C  0.37173850  0.35846147  0.34947004     0.29400
C156        C  0.39943769  0.37385319  0.35029861    -0.37000
C157        C  0.40176289  0.39101837  0.37630972     0.15400
C158        C  0.37845721  0.39293805  0.39989453     0.21200
C159        C  0.35075072  0.37755424  0.39905810    -0.35100
C160        C  0.34843012  0.36038252  0.37305243     0.15300
O161        O  0.36477738  0.34090523  0.32755765    -0.27100
C162        C  0.33666473  0.33150013  0.33726503     0.05100
C163        C  0.32531061  0.34287633  0.36539577    -0.32000
O164        O  0.38547966  0.41042568  0.42187349    -0.23800
C165        C  0.41363094  0.41978448  0.41220748    -0.03800
C166        C  0.42494303  0.40845397  0.38403140    -0.18200
H167        H  0.41788827  0.37251410  0.33198644     0.19800
H168        H  0.33231997  0.37886793  0.41739601     0.18100
H169        H  0.30340996  0.33863074  0.37845116     0.18100
H170        H  0.44687964  0.41265305  0.37102065     0.13900
C171        C  0.40079995  0.10841036  0.37863465     0.29400
C172        C  0.40061864  0.12429599  0.35125684    -0.37000
C173        C  0.37452642  0.14133098  0.34856291     0.15400
C174        C  0.35028740  0.14266980  0.37124441     0.21200
C175        C  0.35046995  0.12678713  0.39862006    -0.35100
C176        C  0.37655934  0.10975450  0.40131369     0.15300
O177        O  0.42267995  0.09089347  0.38584269    -0.27100
C178        C  0.41230448  0.08094001  0.41348914     0.05100
C179        C  0.38376008  0.09192076  0.42429946    -0.32000
O180        O  0.32839176  0.16017036  0.36403608    -0.23800
C181        C  0.33874869  0.17012506  0.33638599    -0.03800
C182        C  0.36730375  0.15915980  0.32557097    -0.18200
H183        H  0.41947125  0.12341837  0.33331568     0.19800
H184        H  0.33161408  0.12765997  0.41655584     0.18100
H185        H  0.37016525  0.08722305  0.44575396     0.18100
H186        H  0.38088138  0.16385591  0.30410682     0.13900
C187        C  0.12174602  0.39251680  0.40026322     0.29400
C188        C  0.14920155  0.37676767  0.39982982    -0.37000
C189        C  0.15174158  0.35971170  0.37372132     0.15400
C190        C  0.12885159  0.35821475  0.34969227     0.21200
C191        C  0.10139706  0.37396556  0.35012478    -0.35100
C192        C  0.09885734  0.39102277  0.37623266     0.15300
O193        O  0.11465053  0.41003854  0.42219574    -0.27100
C194        C  0.08686568  0.41984272  0.41205922     0.05100
C195        C  0.07585573  0.40875901  0.38362932    -0.32000
O196        O  0.13594619  0.34068952  0.32776287    -0.23800
C197        C  0.16373289  0.33088874  0.33789948    -0.03800
C198        C  0.17474451  0.34197766  0.36632537    -0.18200
H199        H  0.16730764  0.37775526  0.41851128     0.19800
H200        H  0.08328919  0.37297750  0.33144202     0.18100
H201        H  0.05426235  0.41334082  0.37021812     0.18100
H202        H  0.19633955  0.33739898  0.37973601     0.13900
C203        C  0.37948916  0.39202968  0.09908627     0.29400
C204        C  0.35255246  0.37576583  0.09871026    -0.37000
C205        C  0.34919000  0.35929077  0.12530220     0.15400
C206        C  0.37085831  0.35881167  0.15050602     0.21200
C207        C  0.39779309  0.37507041  0.15087953    -0.35100
C208        C  0.40115453  0.39154295  0.12429196     0.15300
O209        O  0.38715391  0.40915772  0.07688731    -0.27100
C210        C  0.41409720  0.41970130  0.08800834     0.05100
C211        C  0.42397941  0.40950824  0.11737482    -0.32000
O212        O  0.36319578  0.34170165  0.17272067    -0.23800
C213        C  0.33624968  0.33115418  0.16162105    -0.03800
C214        C  0.32636040  0.34132773  0.13224304    -0.18200
H215        H  0.33541044  0.37597060  0.07909632     0.19800
H216        H  0.41493184  0.37486918  0.17049697     0.18100
H217        H  0.44471352  0.41480769  0.13167555     0.18100
H218        H  0.30561818  0.33602267  0.11795698     0.13900
N219        N  0.46247298  0.47067193  0.93966988    -0.06500
N220        N  0.45720316  0.45226207  0.91833825    -0.58600
N221        N  0.43957511  0.02974896  0.96227929    -0.06200
N222        N  0.41829234  0.04822602  0.95708592    -0.60700
N223        N  0.46186134  0.02995309  0.93978001    -0.05800
N224        N  0.45620329  0.04855828  0.91875580    -0.58600
N225        N  0.44013702  0.47045167  0.96212083    -0.05500
N226        N  0.41910101  0.45190754  0.95647481    -0.61100
C227        C  0.43018869  0.44070207  0.92921231     0.95700
C228        C  0.42906956  0.05980710  0.92996329     0.95500
N229        N  0.46240775  0.03000919  0.56047376    -0.06700
N230        N  0.45683122  0.04868968  0.58143521    -0.59200
N231        N  0.44056726  0.47047022  0.53827758    -0.04800
N232        N  0.41960682  0.45187984  0.54390497    -0.60500
N233        N  0.46295244  0.47071175  0.56069177    -0.06700
N234        N  0.45769143  0.45229828  0.58205243    -0.59500
N235        N  0.44000608  0.02975654  0.53807797    -0.04400
N236        N  0.41878402  0.04826766  0.54324897    -0.60500
Mn237      Mn  0.43912101  0.50006118  0.50021113     1.18400
C238        C  0.42965793  0.05992779  0.57025666     0.97800
C239        C  0.43069174  0.44069465  0.57116330     0.98400
N240        N  0.03769889  0.03023541  0.93938827    -0.06700
N241        N  0.04290662  0.04874658  0.91815360    -0.63000
N242        N  0.06058072  0.47090990  0.96154703    -0.05500
N243        N  0.08165841  0.45234208  0.95592556    -0.63700
N244        N  0.03804411  0.47095577  0.93929983    -0.06200
N245        N  0.04324403  0.45241896  0.91810137    -0.63300
N246        N  0.06029053  0.03020844  0.96158183    -0.05100
N247        N  0.08138332  0.04869346  0.95591274    -0.64000
Mn248      Mn  0.00001698  0.00048285  0.93861653     1.10700
C249        C  0.07012403  0.06011341  0.92887667     0.99000
C250        C  0.07041637  0.44095910  0.92886404     0.99100
N251        N  0.03878947  0.47093510  0.56023526    -0.06300
N252        N  0.04439375  0.45231778  0.58126711    -0.61600
N253        N  0.06064251  0.03022211  0.53748051    -0.05600
N254        N  0.08178561  0.04874404  0.54264560    -0.58400
N255        N  0.03846673  0.03026900  0.56010560    -0.06900
N256        N  0.04410765  0.04882120  0.58120176    -0.61200
N257        N  0.06093405  0.47093680  0.53757938    -0.05900
N258        N  0.08205964  0.45233265  0.54269633    -0.58400
Mn259      Mn  0.00066188  0.00050864  0.56138857     1.20200
Mn260      Mn  0.06156676  0.00055735  0.49956305     1.10100
Cl261      Cl  0.00034083  0.00040167  0.49995611    -0.86300
C262        C  0.07134330  0.44086728  0.56991536     0.96000
C263        C  0.07108067  0.06020132  0.56987799     0.95800
N264        N  0.28749698  0.28013763  0.68911782    -0.06500
N265        N  0.29269363  0.29852255  0.66769916    -0.58600
N266        N  0.31071995  0.22117593  0.71177630    -0.06200
N267        N  0.33206004  0.20276464  0.70653498    -0.60700
N268        N  0.28828384  0.22085336  0.68941608    -0.05800
N269        N  0.29395609  0.20222550  0.66840834    -0.58600
N270        N  0.30991274  0.28044526  0.71150039    -0.05500
N271        N  0.33082606  0.29905168  0.70579655    -0.61100
C272        C  0.31968483  0.31017847  0.67852638     0.95700
C273        C  0.32122151  0.19109120  0.67952203     0.95500
N274        N  0.28901487  0.22100466  0.81011765    -0.06700
N275        N  0.29476583  0.20242506  0.83114965    -0.59200
N276        N  0.31045147  0.28055096  0.78764506    -0.04800
N277        N  0.33135890  0.29921280  0.79316475    -0.60500
N278        N  0.28815693  0.28029362  0.81013561    -0.06700
N279        N  0.29332402  0.29879581  0.83136809    -0.59500
N280        N  0.31126707  0.22124264  0.78758499    -0.04400
N281        N  0.33262055  0.20281352  0.79276449    -0.60500
Mn282      Mn  0.31153677  0.25089871  0.74960884     1.18400
C283        C  0.32192065  0.19122760  0.81991556     0.97800
C284        C  0.32023432  0.31045001  0.82039218     0.98400
N285        N  0.21221092  0.22038971  0.68995049    -0.06700
N286        N  0.20661097  0.20179118  0.66890741    -0.63000
N287        N  0.18954374  0.27969622  0.71240542    -0.05500
N288        N  0.16832076  0.29822746  0.70727028    -0.63700
N289        N  0.21165045  0.27972235  0.68971265    -0.06200
N290        N  0.20592454  0.29828417  0.66863914    -0.63300
N291        N  0.19006903  0.22041332  0.71260976    -0.05100
N292        N  0.16899182  0.20182945  0.70752124    -0.64000
Mn293      Mn  0.24989699  0.25024682  0.68854007     1.10700
C294        C  0.17970101  0.19035835  0.68029989     0.99000
C295        C  0.17894045  0.30967450  0.68000084     0.99100
N296        N  0.21261661  0.27981680  0.81065963    -0.06300
N297        N  0.20740630  0.29836557  0.83183778    -0.61600
N298        N  0.19054215  0.22050962  0.78849526    -0.05600
N299        N  0.16949891  0.20200362  0.79422633    -0.58400
N300        N  0.21316767  0.22053784  0.81065404    -0.06900
N301        N  0.20802835  0.20204245  0.83193124    -0.61200
N302        N  0.19004688  0.27980626  0.78844668    -0.05900
N303        N  0.16893348  0.29834784  0.79407320    -0.58400
Mn304      Mn  0.25074712  0.25038032  0.81131260     1.20200
Mn305      Mn  0.18909688  0.25011878  0.75047512     1.09100
Cl306      Cl  0.25032036  0.25040953  0.74997175    -0.86300
C307        C  0.18019092  0.30977329  0.82110165     0.96000
C308        C  0.18081837  0.19062754  0.82126335     0.95800
C309        C  0.10014922  0.10815481  0.62161750     0.29400
C310        C  0.10088607  0.12363645  0.64933465    -0.37000
C311        C  0.12697544  0.14063064  0.65182894     0.15400
C312        C  0.15071104  0.14231085  0.62865798     0.21200
C313        C  0.14997725  0.12682636  0.60094460    -0.35100
C314        C  0.12388830  0.10983336  0.59845015     0.15300
O315        O  0.07817337  0.09073894  0.61450312    -0.27100
C316        C  0.08798679  0.08118649  0.58642408     0.05100
C317        C  0.11625420  0.09233020  0.57524672    -0.32000
O318        O  0.17266298  0.15975200  0.63574593    -0.23800
C319        C  0.16284160  0.16931921  0.66381342    -0.03800
C320        C  0.13459213  0.15815788  0.67501146    -0.18200
H321        H  0.08242859  0.12250756  0.66765921     0.19800
H322        H  0.16842503  0.12796452  0.58261292     0.18100
H323        H  0.12941869  0.08792721  0.55342045     0.18100
H324        H  0.12141484  0.16257813  0.69682592     0.13900
C325        C  0.12198338  0.10800258  0.90014140     0.29400
C326        C  0.14972556  0.12336018  0.89957239    -0.37000
C327        C  0.15220395  0.14067865  0.87373017     0.15400
C328        C  0.12899428  0.14275579  0.85007446     0.21200
C329        C  0.10125420  0.12740171  0.85064472    -0.35100
C330        C  0.09877690  0.11008513  0.87648347     0.15300
O331        O  0.11485054  0.09037939  0.92190862    -0.27100
C332        C  0.08672748  0.08109789  0.91204323     0.05100
C333        C  0.07553656  0.09261213  0.88393572    -0.32000
O334        O  0.13612213  0.16036687  0.82829599    -0.23800
C335        C  0.16424650  0.16965236  0.83814415    -0.03800
C336        C  0.17544662  0.15815134  0.86625930    -0.18200
H337        H  0.16807918  0.12189982  0.91796666     0.19800
H338        H  0.08290359  0.12885986  0.83224953     0.18100
H339        H  0.05364878  0.08850625  0.87079430     0.18100
H340        H  0.19733818  0.16226185  0.87938754     0.13900
C341        C  0.15027897  0.35802391  0.62850085     0.29400
C342        C  0.14979187  0.37366620  0.60091289    -0.37000
C343        C  0.12375086  0.39076352  0.59834766     0.15400
C344        C  0.09983145  0.39239183  0.62133835     0.21200
C345        C  0.10031430  0.37674350  0.64892548    -0.35100
C346        C  0.12635992  0.35964613  0.65149283     0.15300
O347        O  0.17216552  0.34048887  0.63562887    -0.27100
C348        C  0.16211928  0.33079325  0.66353800     0.05100
C349        C  0.13378805  0.34197408  0.67460443    -0.32000
O350        O  0.07798334  0.40996683  0.61423225    -0.23800
C351        C  0.08806137  0.41967673  0.58633994    -0.03800
C352        C  0.11636618  0.40846438  0.57526277    -0.18200
H353        H  0.16839735  0.37257812  0.58273317     0.19800
H354        H  0.08172027  0.37784494  0.66711772     0.18100
H355        H  0.12045357  0.33748872  0.69629251     0.18100
H356        H  0.12973069  0.41296571  0.55359748     0.13900
C357        C  0.40080946  0.10842245  0.62145219     0.29400
C358        C  0.40011543  0.12410368  0.64899712    -0.37000
C359        C  0.37404409  0.14119664  0.65133082     0.15400
C360        C  0.35028188  0.14278685  0.62817181     0.21200
C361        C  0.35098373  0.12711500  0.60062089    -0.35100
C362        C  0.37705113  0.11001996  0.59828989     0.15300
O363        O  0.42272730  0.09085060  0.61453388    -0.27100
C364        C  0.41284492  0.08110923  0.58659373     0.05100
C365        C  0.38460603  0.09229575  0.57530483    -0.32000
O366        O  0.32830615  0.16029853  0.63513658    -0.23800
C367        C  0.33815362  0.17001239  0.66310279    -0.03800
C368        C  0.36643473  0.15887195  0.67435952    -0.18200
H369        H  0.41857188  0.12302919  0.66733105     0.19800
H370        H  0.33250948  0.12816962  0.58230556     0.18100
H371        H  0.37140238  0.08777520  0.55354745     0.18100
H372        H  0.37960314  0.16336447  0.69614603     0.13900
C373        C  0.37173872  0.35846148  0.84946989     0.29400
C374        C  0.39943778  0.37385319  0.85029861    -0.37000
C375        C  0.40176315  0.39101839  0.87630960     0.15400
C376        C  0.37845746  0.39293806  0.89989441     0.21200
C377        C  0.35075074  0.37755429  0.89905825    -0.35100
C378        C  0.34843054  0.36038257  0.87305228     0.15300
O379        O  0.36477740  0.34090516  0.82755763    -0.27100
C380        C  0.33666488  0.33150008  0.83726496     0.05100
C381        C  0.32531060  0.34287632  0.86539584    -0.32000
O382        O  0.38547968  0.41042567  0.92187348    -0.23800
C383        C  0.41363106  0.41978448  0.91220748    -0.03800
C384        C  0.42494297  0.40845398  0.88403148    -0.18200
H385        H  0.41788961  0.37251390  0.83198541     0.19800
H386        H  0.33232188  0.37886790  0.91739456     0.18100
H387        H  0.30341213  0.33863103  0.87845011     0.18100
H388        H  0.44688074  0.41265335  0.87101985     0.13900
C389        C  0.40080000  0.10841040  0.87863457     0.29400
C390        C  0.40061855  0.12429603  0.85125691    -0.37000
C391        C  0.37452645  0.14133103  0.84856272     0.15400
C392        C  0.35028740  0.14266981  0.87124453     0.21200
C393        C  0.35047015  0.12678708  0.89862002    -0.35100
C394        C  0.37655939  0.10975455  0.90131367     0.15300
O395        O  0.42268002  0.09089346  0.88584261    -0.27100
C396        C  0.41230468  0.08094002  0.91348902     0.05100
C397        C  0.38376016  0.09192069  0.92429952    -0.32000
O398        O  0.32839190  0.16017032  0.86403602    -0.23800
C399        C  0.33874886  0.17012504  0.83638579    -0.03800
C400        C  0.36730360  0.15915975  0.82557123    -0.18200
H401        H  0.41947156  0.12341839  0.83331531     0.19800
H402        H  0.33161305  0.12765985  0.91655721     0.18100
H403        H  0.37016648  0.08722328  0.94575262     0.18100
H404        H  0.38088320  0.16385657  0.80410398     0.13900
C405        C  0.12174622  0.39251677  0.90026352     0.29400
C406        C  0.14920148  0.37676769  0.89982977    -0.37000
C407        C  0.15174165  0.35971173  0.87372158     0.15400
C408        C  0.12885164  0.35821477  0.84969234     0.21200
C409        C  0.10139709  0.37396552  0.85012485    -0.35100
C410        C  0.09885759  0.39102272  0.87623274     0.15300
O411        O  0.11465062  0.41003857  0.92219589    -0.27100
C412        C  0.08686587  0.41984268  0.91205943     0.05100
C413        C  0.07585562  0.40875899  0.88362932    -0.32000
O414        O  0.13594619  0.34068952  0.82776293    -0.23800
C415        C  0.16373284  0.33088872  0.83789957    -0.03800
C416        C  0.17474466  0.34197767  0.86632555    -0.18200
H417        H  0.16730951  0.37775542  0.91851313     0.19800
H418        H  0.08328932  0.37297740  0.83144220     0.18100
H419        H  0.05426417  0.41334034  0.87021953     0.18100
H420        H  0.19633854  0.33739903  0.87973599     0.13900
C421        C  0.37948907  0.39202965  0.59908616     0.29400
C422        C  0.35255261  0.37576584  0.59871033    -0.37000
C423        C  0.34918997  0.35929084  0.62530202     0.15400
C424        C  0.37085841  0.35881171  0.65050601     0.21200
C425        C  0.39779295  0.37507042  0.65087932    -0.35100
C426        C  0.40115458  0.39154288  0.62429200     0.15300
O427        O  0.38715392  0.40915767  0.57688726    -0.27100
C428        C  0.41409715  0.41970122  0.58800818     0.05100
C429        C  0.42397949  0.40950829  0.61737480    -0.32000
O430        O  0.36319572  0.34170166  0.67272054    -0.23800
C431        C  0.33624969  0.33115416  0.66162095    -0.03800
C432        C  0.32636051  0.34132780  0.63224307    -0.18200
H433        H  0.33540942  0.37597052  0.57909474     0.19800
H434        H  0.41493314  0.37486920  0.67049860     0.18100
H435        H  0.44471263  0.41480742  0.63167467     0.18100
H436        H  0.30561799  0.33602265  0.61795683     0.13900
N437        N  0.46247299  0.97067196  0.43966988    -0.06500
N438        N  0.45720321  0.95226215  0.41833821    -0.58600
N439        N  0.43957515  0.52974901  0.46227937    -0.06200
N440        N  0.41829232  0.54822600  0.45708588    -0.60700
N441        N  0.46186129  0.52995300  0.43978003    -0.05800
N442        N  0.45620325  0.54855822  0.41875579    -0.58600
N443        N  0.44013698  0.97045163  0.46212089    -0.05500
N444        N  0.41910105  0.95190754  0.45647477    -0.61100
C445        C  0.43018874  0.94070205  0.42921224     0.95700
C446        C  0.42906965  0.55980715  0.42996332     0.95500
N447        N  0.46240770  0.53000925  0.06047359    -0.06700
N448        N  0.45683121  0.54868969  0.08143508    -0.59200
N449        N  0.44056726  0.97047019  0.03827747    -0.04800
N450        N  0.41960679  0.95187980  0.04390495    -0.60500
N451        N  0.46295239  0.97071171  0.06069171    -0.06700
N452        N  0.45769141  0.95229833  0.08205241    -0.59500
N453        N  0.44000594  0.52975650  0.03807788    -0.04400
N454        N  0.41878399  0.54826773  0.04324891    -0.60500
Mn455      Mn  0.43912099  0.00006114  0.00021107     1.18400
C456        C  0.42965789  0.55992781  0.07025659     0.97800
C457        C  0.43069170  0.94069468  0.07116326     0.98400
N458        N  0.03769894  0.53023541  0.43938833    -0.06700
N459        N  0.04290658  0.54874661  0.41815370    -0.63000
N460        N  0.06058062  0.97090991  0.46154704    -0.05500
N461        N  0.08165842  0.95234203  0.45592556    -0.63700
N462        N  0.03804414  0.97095581  0.43929998    -0.06200
N463        N  0.04324409  0.95241901  0.41810131    -0.63300
N464        N  0.06029058  0.53020843  0.46158188    -0.05100
N465        N  0.08138338  0.54869346  0.45591279    -0.64000
Mn466      Mn  0.00001702  0.50048286  0.43861654     1.10700
C467        C  0.07012408  0.56011337  0.42887667     0.99000
C468        C  0.07041636  0.94095915  0.42886409     0.99100
N469        N  0.03878948  0.97093509  0.06023506    -0.06300
N470        N  0.04439367  0.95231764  0.08126706    -0.61600
N471        N  0.06064261  0.53022214  0.03748046    -0.05600
N472        N  0.08178564  0.54874403  0.04264571    -0.58400
N473        N  0.03846673  0.53026901  0.06010551    -0.06900
N474        N  0.04410767  0.54882115  0.08120173    -0.61200
N475        N  0.06093399  0.97093677  0.03757940    -0.05900
N476        N  0.08205969  0.95233261  0.04269630    -0.58400
Mn477      Mn  0.00066193  0.50050863  0.06138852     1.20200
Mn478      Mn  0.06156681  0.50055736  0.99956300     1.10100
Cl479      Cl  0.00034090  0.50040168  0.99995603    -0.86300
C480        C  0.07134325  0.94086734  0.06991536     0.96000
C481        C  0.07108054  0.56020144  0.06987798     0.95800
N482        N  0.28749696  0.78013764  0.18911793    -0.06500
N483        N  0.29269364  0.79852261  0.16769923    -0.58600
N484        N  0.31071996  0.72117587  0.21177641    -0.06200
N485        N  0.33206007  0.70276464  0.20653493    -0.60700
N486        N  0.28828389  0.72085335  0.18941615    -0.05800
N487        N  0.29395612  0.70222551  0.16840834    -0.58600
N488        N  0.30991274  0.78044530  0.21150042    -0.05500
N489        N  0.33082610  0.79905164  0.20579652    -0.61100
C490        C  0.31968476  0.81017854  0.17852644     0.95700
C491        C  0.32122147  0.69109112  0.17952206     0.95500
N492        N  0.28901490  0.72100466  0.31011767    -0.06700
N493        N  0.29476589  0.70242503  0.33114962    -0.59200
N494        N  0.31045141  0.78055086  0.28764513    -0.04800
N495        N  0.33135881  0.79921279  0.29316477    -0.60500
N496        N  0.28815693  0.78029353  0.31013559    -0.06700
N497        N  0.29332400  0.79879582  0.33136807    -0.59500
N498        N  0.31126702  0.72124255  0.28758485    -0.04400
N499        N  0.33262061  0.70281359  0.29276447    -0.60500
Mn500      Mn  0.31153678  0.75089870  0.24960880     1.18400
C501        C  0.32192068  0.69122755  0.31991545     0.97800
C502        C  0.32023428  0.81044996  0.32039219     0.98400
N503        N  0.21221089  0.72038972  0.18995063    -0.06700
N504        N  0.20661092  0.70179120  0.16890730    -0.63000
N505        N  0.18954373  0.77969615  0.21240536    -0.05500
N506        N  0.16832074  0.79822748  0.20727033    -0.63700
N507        N  0.21165043  0.77972234  0.18971275    -0.06200
N508        N  0.20592456  0.79828422  0.16863914    -0.63300
N509        N  0.19006917  0.72041339  0.21260969    -0.05100
N510        N  0.16899177  0.70182941  0.20752116    -0.64000
Mn511      Mn  0.24989701  0.75024680  0.18854011     1.10700
C512        C  0.17970104  0.69035839  0.18029991     0.99000
C513        C  0.17894047  0.80967446  0.18000088     0.99100
N514        N  0.21261650  0.77981676  0.31065963    -0.06300
N515        N  0.20740633  0.79836558  0.33183778    -0.61600
N516        N  0.19054210  0.72050959  0.28849518    -0.05600
N517        N  0.16949888  0.70200366  0.29422623    -0.58400
N518        N  0.21316772  0.72053772  0.31065401    -0.06900
N519        N  0.20802834  0.70204239  0.33193116    -0.61200
N520        N  0.19004690  0.77980617  0.28844666    -0.05900
N521        N  0.16893347  0.79834784  0.29407308    -0.58400
Mn522      Mn  0.25074702  0.75038030  0.31131257     1.20200
Mn523      Mn  0.18909688  0.75011875  0.25047513     1.09100
Cl524      Cl  0.25032041  0.75040952  0.24997180    -0.86300
C525        C  0.18019097  0.80977327  0.32110154     0.96000
C526        C  0.18081830  0.69062751  0.32126326     0.95800
C527        C  0.10014923  0.60815488  0.12161745     0.29400
C528        C  0.10088623  0.62363650  0.14933464    -0.37000
C529        C  0.12697556  0.64063066  0.15182881     0.15400
C530        C  0.15071106  0.64231086  0.12865781     0.21200
C531        C  0.14997709  0.62682635  0.10094462    -0.35100
C532        C  0.12388834  0.60983330  0.09845002     0.15300
O533        O  0.07817349  0.59073894  0.11450312    -0.27100
C534        C  0.08798679  0.58118658  0.08642390     0.05100
C535        C  0.11625409  0.59233022  0.07524695    -0.32000
O536        O  0.17266303  0.65975203  0.13574577    -0.23800
C537        C  0.16284169  0.66931925  0.16381314    -0.03800
C538        C  0.13459218  0.65815795  0.17501154    -0.18200
H539        H  0.08242855  0.62250787  0.16765933     0.19800
H540        H  0.16842534  0.62796462  0.08261216     0.18100
H541        H  0.12941955  0.58792714  0.05341841     0.18100
H542        H  0.12141567  0.66257816  0.19682430     0.13900
C543        C  0.12198341  0.60800259  0.40014138     0.29400
C544        C  0.14972552  0.62336021  0.39957231    -0.37000
C545        C  0.15220391  0.64067863  0.37373007     0.15400
C546        C  0.12899407  0.64275584  0.35007435     0.21200
C547        C  0.10125417  0.62740172  0.35064478    -0.35100
C548        C  0.09877687  0.61008521  0.37648341     0.15300
O549        O  0.11485057  0.59037937  0.42190862    -0.27100
C550        C  0.08672754  0.58109793  0.41204331     0.05100
C551        C  0.07553650  0.59261208  0.38393571    -0.32000
O552        O  0.13612206  0.66036693  0.32829604    -0.23800
C553        C  0.16424658  0.66965232  0.33814409    -0.03800
C554        C  0.17544654  0.65815134  0.36625924    -0.18200
H555        H  0.16807955  0.62189951  0.41796620     0.19800
H556        H  0.08290213  0.62886012  0.33224852     0.18100
H557        H  0.05364974  0.58850620  0.37079519     0.18100
H558        H  0.19733912  0.66226156  0.37938741     0.13900
C559        C  0.15027899  0.85802390  0.12850088     0.29400
C560        C  0.14979186  0.87366622  0.10091297    -0.37000
C561        C  0.12375092  0.89076356  0.09834772     0.15400
C562        C  0.09983143  0.89239182  0.12133836     0.21200
C563        C  0.10031435  0.87674351  0.14892556    -0.35100
C564        C  0.12635999  0.85964617  0.15149291     0.15300
O565        O  0.17216560  0.84048890  0.13562893    -0.27100
C566        C  0.16211939  0.83079325  0.16353799     0.05100
C567        C  0.13378815  0.84197405  0.17460455    -0.32000
O568        O  0.07798330  0.90996685  0.11423228    -0.23800
C569        C  0.08806133  0.91967673  0.08633995    -0.03800
C570        C  0.11636618  0.90846439  0.07526278    -0.18200
H571        H  0.16839769  0.87257830  0.08273302     0.19800
H572        H  0.08172010  0.87784478  0.16711774     0.18100
H573        H  0.12045427  0.83748887  0.19629211     0.18100
H574        H  0.12973057  0.91296544  0.05359756     0.13900
C575        C  0.40080940  0.60842240  0.12145206     0.29400
C576        C  0.40011566  0.62410361  0.14899721    -0.37000
C577        C  0.37404406  0.64119661  0.15133081     0.15400
C578        C  0.35028188  0.64278681  0.12817188     0.21200
C579        C  0.35098369  0.62711492  0.10062089    -0.35100
C580        C  0.37705116  0.61001991  0.09828996     0.15300
O581        O  0.42272742  0.59085061  0.11453382    -0.27100
C582        C  0.41284499  0.58110921  0.08659378     0.05100
C583        C  0.38460600  0.59229572  0.07530463    -0.32000
O584        O  0.32830612  0.66029847  0.13513662    -0.23800
C585        C  0.33815363  0.67001232  0.16310283    -0.03800
C586        C  0.36643484  0.65887192  0.17435949    -0.18200
H587        H  0.41857070  0.62302909  0.16732955     0.19800
H588        H  0.33250956  0.62816928  0.08230592     0.18100
H589        H  0.37140288  0.58777521  0.05354888     0.18100
H590        H  0.37960357  0.66336454  0.19614621     0.13900
C591        C  0.37173860  0.85846149  0.34947002     0.29400
C592        C  0.39943788  0.87385321  0.35029849    -0.37000
C593        C  0.40176317  0.89101847  0.37630961     0.15400
C594        C  0.37845747  0.89293811  0.39989434     0.21200
C595        C  0.35075067  0.87755427  0.39905827    -0.35100
C596        C  0.34843056  0.86038255  0.37305227     0.15300
O597        O  0.36477742  0.84090517  0.32755765    -0.27100
C598        C  0.33666493  0.83150007  0.33726491     0.05100
C599        C  0.32531047  0.84287629  0.36539588    -0.32000
O600        O  0.38547967  0.91042563  0.42187348    -0.23800
C601        C  0.41363109  0.91978448  0.41220737    -0.03800
C602        C  0.42494287  0.90845400  0.38403145    -0.18200
H603        H  0.41788809  0.87251421  0.33198649     0.19800
H604        H  0.33232222  0.87886757  0.41739432     0.18100
H605        H  0.30341273  0.83863146  0.37844947     0.18100
H606        H  0.44688199  0.91265364  0.37101928     0.13900
C607        C  0.40079983  0.60841038  0.37863475     0.29400
C608        C  0.40061875  0.62429605  0.35125669    -0.37000
C609        C  0.37452624  0.64133104  0.34856293     0.15400
C610        C  0.35028753  0.64266990  0.37124433     0.21200
C611        C  0.35046970  0.62678709  0.39862017    -0.35100
C612        C  0.37655940  0.60975444  0.40131352     0.15300
O613        O  0.42267992  0.59089346  0.38584263    -0.27100
C614        C  0.41230451  0.58094004  0.41348914     0.05100
C615        C  0.38376001  0.59192069  0.42429934    -0.32000
O616        O  0.32839179  0.66017038  0.36403606    -0.23800
C617        C  0.33874880  0.67012509  0.33638594    -0.03800
C618        C  0.36730379  0.65915983  0.32557111    -0.18200
H619        H  0.41946967  0.62341873  0.33331725     0.19800
H620        H  0.33161592  0.62766000  0.41655438     0.18100
H621        H  0.37016528  0.58722302  0.44575369     0.18100
H622        H  0.38088219  0.66385621  0.30410621     0.13900
C623        C  0.12174601  0.89251687  0.40026320     0.29400
C624        C  0.14920159  0.87676771  0.39982994    -0.37000
C625        C  0.15174140  0.85971184  0.37372127     0.15400
C626        C  0.12885155  0.85821476  0.34969229     0.21200
C627        C  0.10139701  0.87396560  0.35012468    -0.35100
C628        C  0.09885738  0.89102280  0.37623263     0.15300
O629        O  0.11465052  0.91003853  0.42219578    -0.27100
C630        C  0.08686578  0.91984280  0.41205914     0.05100
C631        C  0.07585569  0.90875902  0.38362934    -0.32000
O632        O  0.13594617  0.84068959  0.32776276    -0.23800
C633        C  0.16373272  0.83088877  0.33789937    -0.03800
C634        C  0.17474476  0.84197768  0.36632555    -0.18200
H635        H  0.16730734  0.87775547  0.41851101     0.19800
H636        H  0.08328968  0.87297773  0.33144215     0.18100
H637        H  0.05426251  0.91334110  0.37021813     0.18100
H638        H  0.19633684  0.83739973  0.37973450     0.13900
C639        C  0.37948926  0.89202971  0.09908623     0.29400
C640        C  0.35255255  0.87576582  0.09871018    -0.37000
C641        C  0.34919011  0.85929082  0.12530221     0.15400
C642        C  0.37085836  0.85881167  0.15050604     0.21200
C643        C  0.39779306  0.87507043  0.15087957    -0.35100
C644        C  0.40115468  0.89154295  0.12429197     0.15300
O645        O  0.38715406  0.90915770  0.07688723    -0.27100
C646        C  0.41409734  0.91970132  0.08800834     0.05100
C647        C  0.42397933  0.90950829  0.11737472    -0.32000
O648        O  0.36319580  0.84170161  0.17272065    -0.23800
C649        C  0.33624966  0.83115427  0.16162112    -0.03800
C650        C  0.32636052  0.84132776  0.13224303    -0.18200
H651        H  0.33541074  0.87597046  0.07909630     0.19800
H652        H  0.41493195  0.87486920  0.17049724     0.18100
H653        H  0.44471442  0.91480824  0.13167628     0.18100
H654        H  0.30561844  0.83602283  0.11795722     0.13900
N655        N  0.46247298  0.97067192  0.93966990    -0.06500
N656        N  0.45720319  0.95226206  0.91833823    -0.58600
N657        N  0.43957511  0.52974901  0.96227932    -0.06200
N658        N  0.41829238  0.54822600  0.95708590    -0.60700
N659        N  0.46186136  0.52995305  0.93977999    -0.05800
N660        N  0.45620331  0.54855831  0.91875581    -0.58600
N661        N  0.44013711  0.97045163  0.96212087    -0.05500
N662        N  0.41910099  0.95190756  0.95647481    -0.61100
C663        C  0.43018877  0.94070203  0.92921237     0.95700
C664        C  0.42906963  0.55980715  0.92996326     0.95500
N665        N  0.46240775  0.53000924  0.56047367    -0.06700
N666        N  0.45683121  0.54868966  0.58143518    -0.59200
N667        N  0.44056726  0.97047021  0.53827760    -0.04800
N668        N  0.41960683  0.95187978  0.54390486    -0.60500
N669        N  0.46295245  0.97071168  0.56069178    -0.06700
N670        N  0.45769138  0.95229829  0.58205251    -0.59500
N671        N  0.44000598  0.52975648  0.53807801    -0.04400
N672        N  0.41878396  0.54826769  0.54324900    -0.60500
Mn673      Mn  0.43912098  0.00006117  0.50021113     1.18400
C674        C  0.42965794  0.55992780  0.57025665     0.97800
C675        C  0.43069168  0.94069471  0.57116329     0.98400
N676        N  0.03769894  0.53023540  0.93938831    -0.06700
N677        N  0.04290661  0.54874655  0.91815367    -0.63000
N678        N  0.06058064  0.97090989  0.96154701    -0.05500
N679        N  0.08165833  0.95234208  0.95592555    -0.63700
N680        N  0.03804402  0.97095578  0.93929985    -0.06200
N681        N  0.04324402  0.95241902  0.91810131    -0.63300
N682        N  0.06029067  0.53020843  0.96158183    -0.05100
N683        N  0.08138331  0.54869355  0.95591278    -0.64000
Mn684      Mn  0.00001707  0.50048286  0.93861653     1.10700
C685        C  0.07012411  0.56011340  0.92887661     0.99000
C686        C  0.07041631  0.94095913  0.92886405     0.99100
N687        N  0.03878949  0.97093511  0.56023525    -0.06300
N688        N  0.04439370  0.95231765  0.58126710    -0.61600
N689        N  0.06064263  0.53022214  0.53748049    -0.05600
N690        N  0.08178570  0.54874401  0.54264565    -0.58400
N691        N  0.03846674  0.53026908  0.56010563    -0.06900
N692        N  0.04410778  0.54882122  0.58120172    -0.61200
N693        N  0.06093387  0.97093677  0.53757941    -0.05900
N694        N  0.08205966  0.95233264  0.54269631    -0.58400
Mn695      Mn  0.00066191  0.50050871  0.56138857     1.20200
Mn696      Mn  0.06156678  0.50055734  0.49956302     1.10100
Cl697      Cl  0.00034086  0.50040171  0.49995612    -0.86300
C698        C  0.07134330  0.94086733  0.56991534     0.96000
C699        C  0.07108077  0.56020142  0.56987797     0.95800
N700        N  0.28749688  0.78013764  0.68911784    -0.06500
N701        N  0.29269355  0.79852260  0.66769920    -0.58600
N702        N  0.31071992  0.72117592  0.71177631    -0.06200
N703        N  0.33206009  0.70276466  0.70653493    -0.60700
N704        N  0.28828385  0.72085333  0.68941603    -0.05800
N705        N  0.29395613  0.70222548  0.66840835    -0.58600
N706        N  0.30991271  0.78044529  0.71150040    -0.05500
N707        N  0.33082601  0.79905162  0.70579649    -0.61100
C708        C  0.31968476  0.81017851  0.67852634     0.95700
C709        C  0.32122165  0.69109123  0.67952200     0.95500
N710        N  0.28901479  0.72100468  0.81011764    -0.06700
N711        N  0.29476586  0.70242510  0.83114971    -0.59200
N712        N  0.31045138  0.78055085  0.78764511    -0.04800
N713        N  0.33135887  0.79921277  0.79316479    -0.60500
N714        N  0.28815697  0.78029350  0.81013555    -0.06700
N715        N  0.29332393  0.79879582  0.83136808    -0.59500
N716        N  0.31126702  0.72124253  0.78758494    -0.04400
N717        N  0.33262051  0.70281353  0.79276450    -0.60500
Mn718      Mn  0.31153675  0.75089870  0.74960879     1.18400
C719        C  0.32192057  0.69122755  0.81991558     0.97800
C720        C  0.32023427  0.81044992  0.82039216     0.98400
N721        N  0.21221083  0.72038973  0.68995052    -0.06700
N722        N  0.20661094  0.70179119  0.66890738    -0.63000
N723        N  0.18954353  0.77969618  0.71240540    -0.05500
N724        N  0.16832066  0.79822743  0.70727034    -0.63700
N725        N  0.21165036  0.77972235  0.68971263    -0.06200
N726        N  0.20592446  0.79828414  0.66863915    -0.63300
N727        N  0.19006910  0.72041334  0.71260980    -0.05100
N728        N  0.16899180  0.70182939  0.70752128    -0.64000
Mn729      Mn  0.24989697  0.75024682  0.68854008     1.10700
C730        C  0.17970098  0.69035841  0.68029989     0.99000
C731        C  0.17894030  0.80967441  0.68000081     0.99100
N732        N  0.21261659  0.77981680  0.81065967    -0.06300
N733        N  0.20740635  0.79836551  0.83183780    -0.61600
N734        N  0.19054213  0.72050957  0.78849522    -0.05600
N735        N  0.16949886  0.70200361  0.79422640    -0.58400
N736        N  0.21316765  0.72053780  0.81065402    -0.06900
N737        N  0.20802843  0.70204244  0.83193124    -0.61200
N738        N  0.19004684  0.77980622  0.78844671    -0.05900
N739        N  0.16893350  0.79834788  0.79407317    -0.58400
Mn740      Mn  0.25074700  0.75038032  0.81131259     1.20200
Mn741      Mn  0.18909686  0.75011878  0.75047517     1.09100
Cl742      Cl  0.25032031  0.75040952  0.74997175    -0.86300
C743        C  0.18019095  0.80977330  0.82110158     0.96000
C744        C  0.18081839  0.69062753  0.82126338     0.95800
C745        C  0.10014940  0.60815493  0.62161741     0.29400
C746        C  0.10088610  0.62363654  0.64933480    -0.37000
C747        C  0.12697557  0.64063083  0.65182893     0.15400
C748        C  0.15071116  0.64231086  0.62865803     0.21200
C749        C  0.14997725  0.62682639  0.60094461    -0.35100
C750        C  0.12388834  0.60983338  0.59845020     0.15300
O751        O  0.07817348  0.59073902  0.61450318    -0.27100
C752        C  0.08798676  0.58118660  0.58642409     0.05100
C753        C  0.11625429  0.59233018  0.57524676    -0.32000
O754        O  0.17266297  0.65975206  0.63574595    -0.23800
C755        C  0.16284150  0.66931927  0.66381352    -0.03800
C756        C  0.13459227  0.65815787  0.67501134    -0.18200
H757        H  0.08243024  0.62250791  0.66765784     0.19800
H758        H  0.16842520  0.62796454  0.58261269     0.18100
H759        H  0.12941828  0.58792743  0.55342108     0.18100
H760        H  0.12141354  0.66257879  0.69682759     0.13900
C761        C  0.12198350  0.60800259  0.90014148     0.29400
C762        C  0.14972540  0.62336016  0.89957226    -0.37000
C763        C  0.15220415  0.64067858  0.87373031     0.15400
C764        C  0.12899418  0.64275579  0.85007445     0.21200
C765        C  0.10125435  0.62740170  0.85064486    -0.35100
C766        C  0.09877684  0.61008517  0.87648333     0.15300
O767        O  0.11485058  0.59037942  0.92190863    -0.27100
C768        C  0.08672752  0.58109795  0.91204321     0.05100
C769        C  0.07553658  0.59261214  0.88393565    -0.32000
O770        O  0.13612214  0.66036687  0.82829614    -0.23800
C771        C  0.16424668  0.66965230  0.83814423    -0.03800
C772        C  0.17544654  0.65815129  0.86625928    -0.18200
H773        H  0.16808073  0.62189938  0.91796788     0.19800
H774        H  0.08290209  0.62886012  0.83224826     0.18100
H775        H  0.05364893  0.58850601  0.87079415     0.18100
H776        H  0.19733998  0.66226180  0.87938823     0.13900
C777        C  0.15027917  0.85802387  0.62850075     0.29400
C778        C  0.14979181  0.87366616  0.60091299    -0.37000
C779        C  0.12375105  0.89076350  0.59834756     0.15400
C780        C  0.09983167  0.89239185  0.62133823     0.21200
C781        C  0.10031427  0.87674353  0.64892561    -0.35100
C782        C  0.12636006  0.85964610  0.65149273     0.15300
O783        O  0.17216556  0.84048878  0.63562892    -0.27100
C784        C  0.16211923  0.83079316  0.66353801     0.05100
C785        C  0.13378807  0.84197412  0.67460444    -0.32000
O786        O  0.07798337  0.90996681  0.61423225    -0.23800
C787        C  0.08806135  0.91967675  0.58633997    -0.03800
C788        C  0.11636616  0.90846441  0.57526273    -0.18200
H789        H  0.16839924  0.87257817  0.58273172     0.19800
H790        H  0.08172181  0.87784477  0.66711628     0.18100
H791        H  0.12045344  0.83748876  0.69629266     0.18100
H792        H  0.12973025  0.91296544  0.55359784     0.13900
C793        C  0.40080956  0.60842238  0.62145231     0.29400
C794        C  0.40011541  0.62410363  0.64899696    -0.37000
C795        C  0.37404432  0.64119661  0.65133097     0.15400
C796        C  0.35028183  0.64278680  0.62817179     0.21200
C797        C  0.35098396  0.62711491  0.60062110    -0.35100
C798        C  0.37705112  0.61001991  0.59828980     0.15300
O799        O  0.42272736  0.59085061  0.61453379    -0.27100
C800        C  0.41284491  0.58110918  0.58659368     0.05100
C801        C  0.38460616  0.59229572  0.57530484    -0.32000
O802        O  0.32830621  0.66029853  0.63513665    -0.23800
C803        C  0.33815377  0.67001238  0.66310287    -0.03800
C804        C  0.36643488  0.65887190  0.67435943    -0.18200
H805        H  0.41857341  0.62302889  0.66733224     0.19800
H806        H  0.33250813  0.62816927  0.58230465     0.18100
H807        H  0.37140190  0.58777479  0.55354680     0.18100
H808        H  0.37960422  0.66336471  0.69614688     0.13900
C809        C  0.37173841  0.85846146  0.84947020     0.29400
C810        C  0.39943780  0.87385318  0.85029851    -0.37000
C811        C  0.40176284  0.89101848  0.87630977     0.15400
C812        C  0.37845719  0.89293808  0.89989454     0.21200
C813        C  0.35075067  0.87755423  0.89905819    -0.35100
C814        C  0.34843018  0.86038250  0.87305246     0.15300
O815        O  0.36477735  0.84090521  0.82755771    -0.27100
C816        C  0.33666476  0.83150004  0.83726508     0.05100
C817        C  0.32531061  0.84287629  0.86539580    -0.32000
O818        O  0.38547961  0.91042572  0.92187346    -0.23800
C819        C  0.41363102  0.91978450  0.91220745    -0.03800
C820        C  0.42494283  0.90845403  0.88403144    -0.18200
H821        H  0.41788697  0.87251414  0.83198781     0.19800
H822        H  0.33232023  0.87886778  0.91739596     0.18100
H823        H  0.30341025  0.83863098  0.87845084     0.18100
H824        H  0.44688089  0.91265355  0.87101962     0.13900
C825        C  0.40079991  0.60841040  0.87863457     0.29400
C826        C  0.40061848  0.62429603  0.85125688    -0.37000
C827        C  0.37452635  0.64133101  0.84856281     0.15400
C828        C  0.35028729  0.64266989  0.87124461     0.21200
C829        C  0.35047005  0.62678711  0.89861992    -0.35100
C830        C  0.37655919  0.60975451  0.90131369     0.15300
O831        O  0.42267990  0.59089348  0.88584263    -0.27100
C832        C  0.41230448  0.58094002  0.91348911     0.05100
C833        C  0.38376003  0.59192072  0.92429938    -0.32000
O834        O  0.32839178  0.66017040  0.86403609    -0.23800
C835        C  0.33874881  0.67012509  0.83638592    -0.03800
C836        C  0.36730361  0.65915977  0.82557123    -0.18200
H837        H  0.41947153  0.62341863  0.83331547     0.19800
H838        H  0.33161270  0.62766013  0.91655759     0.18100
H839        H  0.37016533  0.58722300  0.94575375     0.18100
H840        H  0.38088249  0.66385634  0.80410477     0.13900
C841        C  0.12174605  0.89251690  0.90026333     0.29400
C842        C  0.14920144  0.87676775  0.89982982    -0.37000
C843        C  0.15174173  0.85971170  0.87372155     0.15400
C844        C  0.12885172  0.85821477  0.84969230     0.21200
C845        C  0.10139713  0.87396554  0.85012482    -0.35100
C846        C  0.09885730  0.89102281  0.87623263     0.15300
O847        O  0.11465046  0.91003859  0.92219581    -0.27100
C848        C  0.08686567  0.91984280  0.91205923     0.05100
C849        C  0.07585577  0.90875905  0.88362944    -0.32000
O850        O  0.13594627  0.84068953  0.82776295    -0.23800
C851        C  0.16373305  0.83088872  0.83789965    -0.03800
C852        C  0.17474454  0.84197773  0.86632550    -0.18200
H853        H  0.16730842  0.87775558  0.91851222     0.19800
H854        H  0.08328959  0.87297779  0.83144163     0.18100
H855        H  0.05426150  0.91334116  0.87021800     0.18100
H856        H  0.19634065  0.83739902  0.87973710     0.13900
C857        C  0.37948908  0.89202968  0.59908616     0.29400
C858        C  0.35255271  0.87576583  0.59871036    -0.37000
C859        C  0.34918995  0.85929091  0.62530209     0.15400
C860        C  0.37085857  0.85881170  0.65050614     0.21200
C861        C  0.39779283  0.87507049  0.65087924    -0.35100
C862        C  0.40115465  0.89154290  0.62429212     0.15300
O863        O  0.38715396  0.90915770  0.57688723    -0.27100
C864        C  0.41409715  0.91970129  0.58800816     0.05100
C865        C  0.42397944  0.90950833  0.61737471    -0.32000
O866        O  0.36319577  0.84170171  0.67272062    -0.23800
C867        C  0.33624973  0.83115423  0.66162101    -0.03800
C868        C  0.32636046  0.84132777  0.63224296    -0.18200
H869        H  0.33540921  0.87597075  0.57909464     0.19800
H870        H  0.41493438  0.87486942  0.67050002     0.18100
H871        H  0.44471273  0.91480782  0.63167483     0.18100
H872        H  0.30561837  0.83602272  0.61795699     0.13900
N873        N  0.96247290  0.47067199  0.43966994    -0.06500
N874        N  0.95720316  0.45226208  0.41833823    -0.58600
N875        N  0.93957516  0.02974897  0.46227935    -0.06200
N876        N  0.91829233  0.04822601  0.45708589    -0.60700
N877        N  0.96186131  0.02995306  0.43978005    -0.05800
N878        N  0.95620322  0.04855823  0.41875578    -0.58600
N879        N  0.94013703  0.47045167  0.46212083    -0.05500
N880        N  0.91910095  0.45190754  0.45647472    -0.61100
C881        C  0.93018872  0.44070207  0.42921224     0.95700
C882        C  0.92906963  0.05980714  0.42996333     0.95500
N883        N  0.96240771  0.03000917  0.06047357    -0.06700
N884        N  0.95683124  0.04868966  0.08143512    -0.59200
N885        N  0.94056730  0.47047017  0.03827745    -0.04800
N886        N  0.91960679  0.45187983  0.04390497    -0.60500
N887        N  0.96295245  0.47071165  0.06069170    -0.06700
N888        N  0.95769138  0.45229829  0.08205239    -0.59500
N889        N  0.94000595  0.02975652  0.03807788    -0.04400
N890        N  0.91878399  0.04826767  0.04324900    -0.60500
Mn891      Mn  0.93912100  0.50006116  0.00021107     1.18400
C892        C  0.92965799  0.05992784  0.07025661     0.97800
C893        C  0.93069170  0.44069462  0.07116324     0.98400
N894        N  0.53769889  0.03023545  0.43938824    -0.06700
N895        N  0.54290657  0.04874659  0.41815370    -0.63000
N896        N  0.56058061  0.47090990  0.46154702    -0.05500
N897        N  0.58165845  0.45234203  0.45592553    -0.63700
N898        N  0.53804410  0.47095579  0.43929998    -0.06200
N899        N  0.54324407  0.45241901  0.41810130    -0.63300
N900        N  0.56029069  0.03020845  0.46158189    -0.05100
N901        N  0.58138330  0.04869345  0.45591282    -0.64000
Mn902      Mn  0.50001702  0.00048284  0.43861652     1.10700
C903        C  0.57012408  0.06011342  0.42887664     0.99000
C904        C  0.57041628  0.44095907  0.42886417     0.99100
N905        N  0.53878942  0.47093506  0.06023508    -0.06300
N906        N  0.54439372  0.45231771  0.08126708    -0.61600
N907        N  0.56064257  0.03022206  0.03748048    -0.05600
N908        N  0.58178559  0.04874405  0.04264558    -0.58400
N909        N  0.53846672  0.03026905  0.06010550    -0.06900
N910        N  0.54410768  0.04882120  0.08120170    -0.61200
N911        N  0.56093399  0.47093683  0.03757939    -0.05900
N912        N  0.58205966  0.45233268  0.04269632    -0.58400
Mn913      Mn  0.50066188  0.00050864  0.06138853     1.20200
Mn914      Mn  0.56156680  0.00055733  0.99956301     1.10100
Cl915      Cl  0.50034084  0.00040167  0.99995603    -0.86300
C916        C  0.57134325  0.44086731  0.06991536     0.96000
C917        C  0.57108063  0.06020136  0.06987794     0.95800
N918        N  0.78749703  0.28013759  0.18911792    -0.06500
N919        N  0.79269362  0.29852260  0.16769920    -0.58600
N920        N  0.81071995  0.22117594  0.21177638    -0.06200
N921        N  0.83206012  0.20276464  0.20653499    -0.60700
N922        N  0.78828395  0.22085338  0.18941620    -0.05800
N923        N  0.79395613  0.20222547  0.16840838    -0.58600
N924        N  0.80991272  0.28044531  0.21150043    -0.05500
N925        N  0.83082613  0.29905164  0.20579647    -0.61100
C926        C  0.81968475  0.31017851  0.17852640     0.95700
C927        C  0.82122153  0.19109120  0.17952208     0.95500
N928        N  0.78901488  0.22100467  0.31011763    -0.06700
N929        N  0.79476583  0.20242507  0.33114964    -0.59200
N930        N  0.81045146  0.28055096  0.28764507    -0.04800
N931        N  0.83135885  0.29921281  0.29316483    -0.60500
N932        N  0.78815692  0.28029360  0.31013561    -0.06700
N933        N  0.79332404  0.29879580  0.33136809    -0.59500
N934        N  0.81126702  0.22124265  0.28758494    -0.04400
N935        N  0.83262060  0.20281356  0.29276450    -0.60500
Mn936      Mn  0.81153678  0.25089873  0.24960883     1.18400
C937        C  0.82192056  0.19122752  0.31991539     0.97800
C938        C  0.82023429  0.31045005  0.32039221     0.98400
N939        N  0.71221090  0.22038971  0.18995059    -0.06700
N940        N  0.70661095  0.20179112  0.16890735    -0.63000
N941        N  0.68954370  0.27969619  0.21240542    -0.05500
N942        N  0.66832079  0.29822750  0.20727032    -0.63700
N943        N  0.71165044  0.27972236  0.18971273    -0.06200
N944        N  0.70592456  0.29828420  0.16863917    -0.63300
N945        N  0.69006916  0.22041336  0.21260967    -0.05100
N946        N  0.66899176  0.20182942  0.20752117    -0.64000
Mn947      Mn  0.74989702  0.25024682  0.18854013     1.10700
C948        C  0.67970106  0.19035832  0.18029996     0.99000
C949        C  0.67894043  0.30967449  0.18000085     0.99100
N950        N  0.71261653  0.27981675  0.31065960    -0.06300
N951        N  0.70740635  0.29836561  0.33183779    -0.61600
N952        N  0.69054214  0.22050965  0.28849520    -0.05600
N953        N  0.66949888  0.20200371  0.29422626    -0.58400
N954        N  0.71316770  0.22053780  0.31065397    -0.06900
N955        N  0.70802834  0.20204245  0.33193119    -0.61200
N956        N  0.69004696  0.27980623  0.28844665    -0.05900
N957        N  0.66893346  0.29834784  0.29407314    -0.58400
Mn958      Mn  0.75074706  0.25038030  0.31131258     1.20200
Mn959      Mn  0.68909690  0.25011876  0.25047510     1.09100
Cl960      Cl  0.75032043  0.25040954  0.24997180    -0.86300
C961        C  0.68019094  0.30977325  0.32110157     0.96000
C962        C  0.68081834  0.19062757  0.32126327     0.95800
C963        C  0.60014929  0.10815480  0.12161748     0.29400
C964        C  0.60088619  0.12363643  0.14933462    -0.37000
C965        C  0.62697548  0.14063066  0.15182883     0.15400
C966        C  0.65071112  0.14231080  0.12865788     0.21200
C967        C  0.64997708  0.12682630  0.10094469    -0.35100
C968        C  0.62388835  0.10983326  0.09845002     0.15300
O969        O  0.57817348  0.09073893  0.11450306    -0.27100
C970        C  0.58798679  0.08118652  0.08642389     0.05100
C971        C  0.61625405  0.09233017  0.07524694    -0.32000
O972        O  0.67266302  0.15975199  0.13574585    -0.23800
C973        C  0.66284162  0.16931922  0.16381325    -0.03800
C974        C  0.63459216  0.15815784  0.17501145    -0.18200
H975        H  0.58242857  0.12250757  0.16765930     0.19800
H976        H  0.66842563  0.12796455  0.08261200     0.18100
H977        H  0.62941942  0.08792708  0.05341855     0.18100
H978        H  0.62141488  0.16257812  0.19682507     0.13900
C979        C  0.62198337  0.10800263  0.40014143     0.29400
C980        C  0.64972560  0.12336020  0.39957235    -0.37000
C981        C  0.65220397  0.14067865  0.37373006     0.15400
C982        C  0.62899417  0.14275581  0.35007430     0.21200
C983        C  0.60125424  0.12740170  0.35064478    -0.35100
C984        C  0.59877690  0.11008516  0.37648342     0.15300
O985        O  0.61485057  0.09037939  0.42190865    -0.27100
C986        C  0.58672750  0.08109793  0.41204333     0.05100
C987        C  0.57553643  0.09261210  0.38393571    -0.32000
O988        O  0.63612214  0.16036692  0.32829597    -0.23800
C989        C  0.66424658  0.16965238  0.33814412    -0.03800
C990        C  0.67544653  0.15815136  0.36625917    -0.18200
H991        H  0.66807917  0.12189976  0.41796608     0.19800
H992        H  0.58290228  0.12886011  0.33224854     0.18100
H993        H  0.55364967  0.08850643  0.37079524     0.18100
H994        H  0.69733939  0.16226201  0.37938776     0.13900
C995        C  0.65027917  0.35802391  0.12850074     0.29400
C996        C  0.64979179  0.37366616  0.10091308    -0.37000
C997        C  0.62375113  0.39076352  0.09834755     0.15400
C998        C  0.59983146  0.39239181  0.12133834     0.21200
C999        C  0.60031435  0.37674351  0.14892545    -0.35100
C1000       C  0.62635993  0.35964618  0.15149281     0.15300
O1001       O  0.67216558  0.34048885  0.13562893    -0.27100
C1002       C  0.66211936  0.33079328  0.16353799     0.05100
C1003       C  0.63378804  0.34197409  0.17460452    -0.32000
O1004       O  0.57798335  0.40996685  0.11423229    -0.23800
C1005       C  0.58806138  0.41967673  0.08633992    -0.03800
C1006       C  0.61636620  0.40846441  0.07526283    -0.18200
H1007       H  0.66839959  0.37257804  0.08273148     0.19800
H1008       H  0.58172005  0.37784506  0.16711805     0.18100
H1009       H  0.62045421  0.33748895  0.19629198     0.18100
H1010       H  0.62973106  0.41296583  0.05359713     0.13900
C1011       C  0.90080953  0.10842249  0.12145217     0.29400
C1012       C  0.90011562  0.12410365  0.14899716    -0.37000
C1013       C  0.87404421  0.14119662  0.15133090     0.15400
C1014       C  0.85028198  0.14278687  0.12817185     0.21200
C1015       C  0.85098373  0.12711500  0.10062092    -0.35100
C1016       C  0.87705117  0.11002002  0.09829002     0.15300
O1017       O  0.92272740  0.09085063  0.11453386    -0.27100
C1018       C  0.91284503  0.08110927  0.08659383     0.05100
C1019       C  0.88460592  0.09229576  0.07530467    -0.32000
O1020       O  0.82830620  0.16029851  0.13513663    -0.23800
C1021       C  0.83815367  0.17001237  0.16310284    -0.03800
C1022       C  0.86643483  0.15887196  0.17435954    -0.18200
H1023       H  0.91857218  0.12302926  0.16733061     0.19800
H1024       H  0.83250948  0.12816960  0.08230565     0.18100
H1025       H  0.87140323  0.08777560  0.05354939     0.18100
H1026       H  0.87960340  0.16336448  0.19614630     0.13900
C1027       C  0.87173850  0.35846150  0.34946999     0.29400
C1028       C  0.89943783  0.37385322  0.35029848    -0.37000
C1029       C  0.90176295  0.39101842  0.37630969     0.15400
C1030       C  0.87845743  0.39293805  0.39989440     0.21200
C1031       C  0.85075061  0.37755427  0.39905829    -0.35100
C1032       C  0.84843043  0.36038253  0.37305230     0.15300
O1033       O  0.86477741  0.34090519  0.32755762    -0.27100
C1034       C  0.83666485  0.33150013  0.33726492     0.05100
C1035       C  0.82531046  0.34287627  0.36539591    -0.32000
O1036       O  0.88547963  0.41042562  0.42187352    -0.23800
C1037       C  0.91363091  0.41978446  0.41220747    -0.03800
C1038       C  0.92494314  0.40845401  0.38403132    -0.18200
H1039       H  0.91788788  0.37251417  0.33198677     0.19800
H1040       H  0.83232206  0.37886774  0.41739437     0.18100
H1041       H  0.80341224  0.33863106  0.37845007     0.18100
H1042       H  0.94687938  0.41265305  0.37102070     0.13900
C1043       C  0.90079982  0.10841037  0.37863478     0.29400
C1044       C  0.90061867  0.12429600  0.35125676    -0.37000
C1045       C  0.87452623  0.14133099  0.34856301     0.15400
C1046       C  0.85028731  0.14266980  0.37124442     0.21200
C1047       C  0.85046991  0.12678709  0.39862006    -0.35100
C1048       C  0.87655931  0.10975445  0.40131370     0.15300
O1049       O  0.92267992  0.09089350  0.38584267    -0.27100
C1050       C  0.91230452  0.08094002  0.41348915     0.05100
C1051       C  0.88376012  0.09192069  0.42429942    -0.32000
O1052       O  0.82839169  0.16017038  0.36403612    -0.23800
C1053       C  0.83874858  0.17012503  0.33638601    -0.03800
C1054       C  0.86730371  0.15915982  0.32557098    -0.18200
H1055       H  0.91946984  0.12341843  0.33331681     0.19800
H1056       H  0.83161403  0.12765994  0.41655585     0.18100
H1057       H  0.87016526  0.08722293  0.44575396     0.18100
H1058       H  0.88088116  0.16385582  0.30410715     0.13900
C1059       C  0.62174595  0.39251683  0.40026319     0.29400
C1060       C  0.64920167  0.37676770  0.39982992    -0.37000
C1061       C  0.65174160  0.35971166  0.37372137     0.15400
C1062       C  0.62885184  0.35821478  0.34969238     0.21200
C1063       C  0.60139696  0.37396550  0.35012459    -0.35100
C1064       C  0.59885737  0.39102283  0.37623270     0.15300
O1065       O  0.61465047  0.41003856  0.42219568    -0.27100
C1066       C  0.58686557  0.41984273  0.41205911     0.05100
C1067       C  0.57585581  0.40875895  0.38362935    -0.32000
O1068       O  0.63594621  0.34068957  0.32776285    -0.23800
C1069       C  0.66373290  0.33088876  0.33789949    -0.03800
C1070       C  0.67474468  0.34197764  0.36632545    -0.18200
H1071       H  0.66730714  0.37775525  0.41851081     0.19800
H1072       H  0.58329116  0.37297757  0.33144364     0.18100
H1073       H  0.55426082  0.41334099  0.37021737     0.18100
H1074       H  0.69633913  0.33739901  0.37973582     0.13900
C1075       C  0.87948917  0.39202973  0.09908629     0.29400
C1076       C  0.85255247  0.37576587  0.09871032    -0.37000
C1077       C  0.84919006  0.35929079  0.12530224     0.15400
C1078       C  0.87085833  0.35881166  0.15050601     0.21200
C1079       C  0.89779307  0.37507037  0.15087943    -0.35100
C1080       C  0.90115456  0.39154293  0.12429192     0.15300
O1081       O  0.88715391  0.40915778  0.07688735    -0.27100
C1082       C  0.91409721  0.41970131  0.08800834     0.05100
C1083       C  0.92397932  0.40950822  0.11737472    -0.32000
O1084       O  0.86319582  0.34170161  0.17272065    -0.23800
C1085       C  0.83624974  0.33115418  0.16162106    -0.03800
C1086       C  0.82636042  0.34132778  0.13224309    -0.18200
H1087       H  0.83541045  0.37597066  0.07909649     0.19800
H1088       H  0.91493206  0.37486907  0.17049695     0.18100
H1089       H  0.94471396  0.41480767  0.13167568     0.18100
H1090       H  0.80561844  0.33602284  0.11795727     0.13900
N1091       N  0.96247302  0.47067192  0.93966990    -0.06500
N1092       N  0.95720314  0.45226206  0.91833822    -0.58600
N1093       N  0.93957495  0.02974896  0.96227929    -0.06200
N1094       N  0.91829233  0.04822604  0.95708595    -0.60700
N1095       N  0.96186131  0.02995309  0.93977999    -0.05800
N1096       N  0.95620324  0.04855825  0.91875580    -0.58600
N1097       N  0.94013709  0.47045166  0.96212080    -0.05500
N1098       N  0.91910098  0.45190756  0.95647479    -0.61100
C1099       C  0.93018874  0.44070204  0.92921235     0.95700
C1100       C  0.92906953  0.05980713  0.92996326     0.95500
N1101       N  0.96240773  0.03000915  0.56047371    -0.06700
N1102       N  0.95683121  0.04868966  0.58143519    -0.59200
N1103       N  0.94056721  0.47047020  0.53827758    -0.04800
N1104       N  0.91960682  0.45187983  0.54390493    -0.60500
N1105       N  0.96295247  0.47071175  0.56069179    -0.06700
N1106       N  0.95769143  0.45229834  0.58205247    -0.59500
N1107       N  0.94000602  0.02975650  0.53807799    -0.04400
N1108       N  0.91878400  0.04826766  0.54324902    -0.60500
Mn1109     Mn  0.93912096  0.50006118  0.50021113     1.18400
C1110       C  0.92965799  0.05992783  0.57025666     0.97800
C1111       C  0.93069176  0.44069466  0.57116331     0.98400
N1112       N  0.53769891  0.03023540  0.93938823    -0.06700
N1113       N  0.54290665  0.04874654  0.91815358    -0.63000
N1114       N  0.56058066  0.47090988  0.96154704    -0.05500
N1115       N  0.58165838  0.45234210  0.95592552    -0.63700
N1116       N  0.53804405  0.47095577  0.93929985    -0.06200
N1117       N  0.54324398  0.45241899  0.91810132    -0.63300
N1118       N  0.56029059  0.03020846  0.96158184    -0.05100
N1119       N  0.58138332  0.04869351  0.95591281    -0.64000
Mn1120     Mn  0.50001701  0.00048282  0.93861653     1.10700
C1121       C  0.57012406  0.06011342  0.92887665     0.99000
C1122       C  0.57041629  0.44095911  0.92886405     0.99100
N1123       N  0.53878949  0.47093510  0.56023525    -0.06300
N1124       N  0.54439376  0.45231774  0.58126711    -0.61600
N1125       N  0.56064265  0.03022208  0.53748053    -0.05600
N1126       N  0.58178563  0.04874406  0.54264553    -0.58400
N1127       N  0.53846674  0.03026905  0.56010563    -0.06900
N1128       N  0.54410775  0.04882115  0.58120176    -0.61200
N1129       N  0.56093393  0.47093681  0.53757938    -0.05900
N1130       N  0.58205966  0.45233267  0.54269632    -0.58400
Mn1131     Mn  0.50066190  0.00050865  0.56138859     1.20200
Mn1132     Mn  0.56156680  0.00055734  0.49956304     1.10100
Cl1133     Cl  0.50034089  0.00040167  0.49995612    -0.86300
C1134       C  0.57134330  0.44086730  0.56991531     0.96000
C1135       C  0.57108071  0.06020135  0.56987794     0.95800
N1136       N  0.78749691  0.28013765  0.68911781    -0.06500
N1137       N  0.79269361  0.29852259  0.66769919    -0.58600
N1138       N  0.81071992  0.22117591  0.71177633    -0.06200
N1139       N  0.83206002  0.20276463  0.70653502    -0.60700
N1140       N  0.78828383  0.22085335  0.68941605    -0.05800
N1141       N  0.79395606  0.20222551  0.66840832    -0.58600
N1142       N  0.80991272  0.28044525  0.71150038    -0.05500
N1143       N  0.83082598  0.29905165  0.70579654    -0.61100
C1144       C  0.81968483  0.31017847  0.67852633     0.95700
C1145       C  0.82122156  0.19109124  0.67952202     0.95500
N1146       N  0.78901484  0.22100467  0.81011764    -0.06700
N1147       N  0.79476587  0.20242512  0.83114969    -0.59200
N1148       N  0.81045151  0.28055095  0.78764505    -0.04800
N1149       N  0.83135885  0.29921281  0.79316477    -0.60500
N1150       N  0.78815691  0.28029363  0.81013561    -0.06700
N1151       N  0.79332399  0.29879583  0.83136805    -0.59500
N1152       N  0.81126711  0.22124263  0.78758501    -0.04400
N1153       N  0.83262054  0.20281351  0.79276448    -0.60500
Mn1154     Mn  0.81153677  0.25089870  0.74960883     1.18400
C1155       C  0.82192060  0.19122756  0.81991554     0.97800
C1156       C  0.82023434  0.31045002  0.82039219     0.98400
N1157       N  0.71221084  0.22038973  0.68995047    -0.06700
N1158       N  0.70661097  0.20179112  0.66890746    -0.63000
N1159       N  0.68954359  0.27969624  0.71240544    -0.05500
N1160       N  0.66832074  0.29822747  0.70727030    -0.63700
N1161       N  0.71165043  0.27972237  0.68971264    -0.06200
N1162       N  0.70592450  0.29828413  0.66863914    -0.63300
N1163       N  0.69006902  0.22041334  0.71260978    -0.05100
N1164       N  0.66899180  0.20182943  0.70752125    -0.64000
Mn1165     Mn  0.74989695  0.25024683  0.68854009     1.10700
C1166       C  0.67970096  0.19035835  0.68029989     0.99000
C1167       C  0.67894039  0.30967450  0.68000080     0.99100
N1168       N  0.71261658  0.27981680  0.81065962    -0.06300
N1169       N  0.70740628  0.29836555  0.83183778    -0.61600
N1170       N  0.69054216  0.22050963  0.78849524    -0.05600
N1171       N  0.66949888  0.20200363  0.79422640    -0.58400
N1172       N  0.71316763  0.22053786  0.81065401    -0.06900
N1173       N  0.70802843  0.20204246  0.83193124    -0.61200
N1174       N  0.69004684  0.27980625  0.78844669    -0.05900
N1175       N  0.66893344  0.29834782  0.79407323    -0.58400
Mn1176     Mn  0.75074704  0.25038033  0.81131259     1.20200
Mn1177     Mn  0.68909685  0.25011879  0.75047513     1.09100
Cl1178     Cl  0.75032034  0.25040953  0.74997176    -0.86300
C1179       C  0.68019088  0.30977327  0.82110165     0.96000
C1180       C  0.68081838  0.19062758  0.82126337     0.95800
C1181       C  0.60014932  0.10815481  0.62161746     0.29400
C1182       C  0.60088620  0.12363649  0.64933455    -0.37000
C1183       C  0.62697546  0.14063072  0.65182895     0.15400
C1184       C  0.65071122  0.14231080  0.62865793     0.21200
C1185       C  0.64997716  0.12682634  0.60094477    -0.35100
C1186       C  0.62388847  0.10983333  0.59844998     0.15300
O1187       O  0.57817343  0.09073897  0.61450305    -0.27100
C1188       C  0.58798683  0.08118648  0.58642396     0.05100
C1189       C  0.61625420  0.09233016  0.57524683    -0.32000
O1190       O  0.67266297  0.15975197  0.63574602    -0.23800
C1191       C  0.66284151  0.16931919  0.66381353    -0.03800
C1192       C  0.63459219  0.15815782  0.67501138    -0.18200
H1193       H  0.58242864  0.12250766  0.66765908     0.19800
H1194       H  0.66842671  0.12796453  0.58261166     0.18100
H1195       H  0.62941950  0.08792689  0.55341961     0.18100
H1196       H  0.62141380  0.16257845  0.69682714     0.13900
C1197       C  0.62198359  0.10800262  0.90014152     0.29400
C1198       C  0.64972547  0.12336019  0.89957225    -0.37000
C1199       C  0.65220420  0.14067866  0.87373033     0.15400
C1200       C  0.62899431  0.14275577  0.85007439     0.21200
C1201       C  0.60125437  0.12740172  0.85064485    -0.35100
C1202       C  0.59877705  0.11008523  0.87648345     0.15300
O1203       O  0.61485063  0.09037943  0.92190870    -0.27100
C1204       C  0.58672769  0.08109793  0.91204336     0.05100
C1205       C  0.57553643  0.09261214  0.88393563    -0.32000
O1206       O  0.63612221  0.16036689  0.82829607    -0.23800
C1207       C  0.66424671  0.16965235  0.83814426    -0.03800
C1208       C  0.67544650  0.15815130  0.86625920    -0.18200
H1209       H  0.66808078  0.12189959  0.91796801     0.19800
H1210       H  0.58290249  0.12886002  0.83224857     0.18100
H1211       H  0.55365104  0.08850655  0.87079542     0.18100
H1212       H  0.69734038  0.16226219  0.87938864     0.13900
C1213       C  0.65027895  0.35802392  0.62850087     0.29400
C1214       C  0.64979184  0.37366618  0.60091292    -0.37000
C1215       C  0.62375090  0.39076355  0.59834758     0.15400
C1216       C  0.59983142  0.39239183  0.62133832     0.21200
C1217       C  0.60031429  0.37674351  0.64892543    -0.35100
C1218       C  0.62635981  0.35964613  0.65149285     0.15300
O1219       O  0.67216546  0.34048885  0.63562888    -0.27100
C1220       C  0.66211922  0.33079323  0.66353801     0.05100
C1221       C  0.63378800  0.34197411  0.67460443    -0.32000
O1222       O  0.57798335  0.40996683  0.61423221    -0.23800
C1223       C  0.58806139  0.41967674  0.58633986    -0.03800
C1224       C  0.61636612  0.40846438  0.57526289    -0.18200
H1225       H  0.66839752  0.37257804  0.58273302     0.19800
H1226       H  0.58171987  0.37784496  0.66711800     0.18100
H1227       H  0.62045340  0.33748871  0.69629260     0.18100
H1228       H  0.62973151  0.41296601  0.55359665     0.13900
C1229       C  0.90080956  0.10842249  0.62145231     0.29400
C1230       C  0.90011535  0.12410368  0.64899700    -0.37000
C1231       C  0.87404425  0.14119658  0.65133091     0.15400
C1232       C  0.85028188  0.14278682  0.62817172     0.21200
C1233       C  0.85098392  0.12711496  0.60062104    -0.35100
C1234       C  0.87705112  0.11002000  0.59828982     0.15300
O1235       O  0.92272734  0.09085068  0.61453386    -0.27100
C1236       C  0.91284497  0.08110928  0.58659373     0.05100
C1237       C  0.88460609  0.09229575  0.57530484    -0.32000
O1238       O  0.82830620  0.16029853  0.63513656    -0.23800
C1239       C  0.83815362  0.17001238  0.66310276    -0.03800
C1240       C  0.86643481  0.15887194  0.67435957    -0.18200
H1241       H  0.91857350  0.12302922  0.66733230     0.19800
H1242       H  0.83250830  0.12816958  0.58230450     0.18100
H1243       H  0.87140240  0.08777519  0.55354741     0.18100
H1244       H  0.87960307  0.16336434  0.69614584     0.13900
C1245       C  0.87173850  0.35846146  0.84947006     0.29400
C1246       C  0.89943773  0.37385316  0.85029857    -0.37000
C1247       C  0.90176297  0.39101840  0.87630970     0.15400
C1248       C  0.87845724  0.39293807  0.89989455     0.21200
C1249       C  0.85075074  0.37755424  0.89905818    -0.35100
C1250       C  0.84843014  0.36038251  0.87305247     0.15300
O1251       O  0.86477733  0.34090520  0.82755769    -0.27100
C1252       C  0.83666470  0.33150007  0.83726509     0.05100
C1253       C  0.82531067  0.34287631  0.86539577    -0.32000
O1254       O  0.88547968  0.41042571  0.92187349    -0.23800
C1255       C  0.91363104  0.41978449  0.91220748    -0.03800
C1256       C  0.92494293  0.40845399  0.88403144    -0.18200
H1257       H  0.91788817  0.37251402  0.83198650     0.19800
H1258       H  0.83232009  0.37886799  0.91739598     0.18100
H1259       H  0.80340974  0.33863062  0.87845134     0.18100
H1260       H  0.94688060  0.41265330  0.87101986     0.13900
C1261       C  0.90079998  0.10841037  0.87863456     0.29400
C1262       C  0.90061856  0.12429599  0.85125689    -0.37000
C1263       C  0.87452643  0.14133100  0.84856279     0.15400
C1264       C  0.85028732  0.14266982  0.87124456     0.21200
C1265       C  0.85047016  0.12678710  0.89862000    -0.35100
C1266       C  0.87655934  0.10975454  0.90131367     0.15300
O1267       O  0.92267997  0.09089346  0.88584266    -0.27100
C1268       C  0.91230457  0.08093999  0.91348904     0.05100
C1269       C  0.88376012  0.09192071  0.92429951    -0.32000
O1270       O  0.82839183  0.16017039  0.86403607    -0.23800
C1271       C  0.83874881  0.17012507  0.83638588    -0.03800
C1272       C  0.86730361  0.15915975  0.82557116    -0.18200
H1273       H  0.91947155  0.12341830  0.83331528     0.19800
H1274       H  0.83161285  0.12765987  0.91655739     0.18100
H1275       H  0.87016624  0.08722321  0.94575291     0.18100
H1276       H  0.88088245  0.16385628  0.80410471     0.13900
C1277       C  0.62174608  0.39251678  0.90026341     0.29400
C1278       C  0.64920150  0.37676770  0.89982985    -0.37000
C1279       C  0.65174170  0.35971167  0.87372153     0.15400
C1280       C  0.62885163  0.35821474  0.84969234     0.21200
C1281       C  0.60139709  0.37396552  0.85012488    -0.35100
C1282       C  0.59885746  0.39102273  0.87623274     0.15300
O1283       O  0.61465059  0.41003859  0.92219586    -0.27100
C1284       C  0.58686579  0.41984270  0.91205942     0.05100
C1285       C  0.57585567  0.40875904  0.88362935    -0.32000
O1286       O  0.63594619  0.34068949  0.82776299    -0.23800
C1287       C  0.66373296  0.33088870  0.83789966    -0.03800
C1288       C  0.67474444  0.34197770  0.86632544    -0.18200
H1289       H  0.66730826  0.37775531  0.91851209     0.19800
H1290       H  0.58328906  0.37297739  0.83144202     0.18100
H1291       H  0.55426357  0.41334048  0.87021921     0.18100
H1292       H  0.69634070  0.33739871  0.87973710     0.13900
C1293       C  0.87948906  0.39202963  0.59908615     0.29400
C1294       C  0.85255261  0.37576582  0.59871035    -0.37000
C1295       C  0.84919006  0.35929088  0.62530209     0.15400
C1296       C  0.87085845  0.35881170  0.65050603     0.21200
C1297       C  0.89779298  0.37507042  0.65087936    -0.35100
C1298       C  0.90115451  0.39154289  0.62429201     0.15300
O1299       O  0.88715390  0.40915770  0.57688727    -0.27100
C1300       C  0.91409712  0.41970125  0.58800817     0.05100
C1301       C  0.92397949  0.40950830  0.61737481    -0.32000
O1302       O  0.86319577  0.34170170  0.67272063    -0.23800
C1303       C  0.83624983  0.33115418  0.66162104    -0.03800
C1304       C  0.82636037  0.34132775  0.63224296    -0.18200
H1305       H  0.83540931  0.37597055  0.57909471     0.19800
H1306       H  0.91493295  0.37486928  0.67049849     0.18100
H1307       H  0.94471225  0.41480737  0.63167442     0.18100
H1308       H  0.80561972  0.33602295  0.61795776     0.13900
N1309       N  0.96247303  0.97067194  0.43966989    -0.06500
N1310       N  0.95720317  0.95226210  0.41833827    -0.58600
N1311       N  0.93957500  0.52974903  0.46227939    -0.06200
N1312       N  0.91829233  0.54822604  0.45708592    -0.60700
N1313       N  0.96186128  0.52995302  0.43978001    -0.05800
N1314       N  0.95620324  0.54855819  0.41875583    -0.58600
N1315       N  0.94013700  0.97045166  0.46212086    -0.05500
N1316       N  0.91910106  0.95190758  0.45647478    -0.61100
C1317       C  0.93018871  0.94070205  0.42921224     0.95700
C1318       C  0.92906957  0.55980715  0.42996328     0.95500
N1319       N  0.96240773  0.53000915  0.06047356    -0.06700
N1320       N  0.95683128  0.54868961  0.08143512    -0.59200
N1321       N  0.94056716  0.97047020  0.03827748    -0.04800
N1322       N  0.91960684  0.95187979  0.04390491    -0.60500
N1323       N  0.96295242  0.97071169  0.06069175    -0.06700
N1324       N  0.95769141  0.95229833  0.08205236    -0.59500
N1325       N  0.94000601  0.52975645  0.03807792    -0.04400
N1326       N  0.91878404  0.54826773  0.04324896    -0.60500
Mn1327     Mn  0.93912090  0.00006114  0.00021108     1.18400
C1328       C  0.92965807  0.55992784  0.07025657     0.97800
C1329       C  0.93069165  0.94069468  0.07116329     0.98400
N1330       N  0.53769893  0.53023541  0.43938833    -0.06700
N1331       N  0.54290654  0.54874663  0.41815369    -0.63000
N1332       N  0.56058063  0.97090991  0.46154703    -0.05500
N1333       N  0.58165841  0.95234203  0.45592550    -0.63700
N1334       N  0.53804411  0.97095583  0.43930001    -0.06200
N1335       N  0.54324402  0.95241904  0.41810129    -0.63300
N1336       N  0.56029055  0.53020845  0.46158189    -0.05100
N1337       N  0.58138333  0.54869350  0.45591279    -0.64000
Mn1338     Mn  0.50001701  0.50048287  0.43861652     1.10700
C1339       C  0.57012403  0.56011341  0.42887667     0.99000
C1340       C  0.57041625  0.94095912  0.42886408     0.99100
N1341       N  0.53878945  0.97093508  0.06023510    -0.06300
N1342       N  0.54439367  0.95231769  0.08126709    -0.61600
N1343       N  0.56064264  0.53022219  0.03748044    -0.05600
N1344       N  0.58178565  0.54874405  0.04264565    -0.58400
N1345       N  0.53846669  0.53026909  0.06010554    -0.06900
N1346       N  0.54410771  0.54882115  0.08120174    -0.61200
N1347       N  0.56093402  0.97093675  0.03757939    -0.05900
N1348       N  0.58205967  0.95233259  0.04269625    -0.58400
Mn1349     Mn  0.50066191  0.50050866  0.06138854     1.20200
Mn1350     Mn  0.56156677  0.50055736  0.99956299     1.10100
Cl1351     Cl  0.50034089  0.50040170  0.99995603    -0.86300
C1352       C  0.57134329  0.94086736  0.06991537     0.96000
C1353       C  0.57108063  0.56020144  0.06987798     0.95800
N1354       N  0.78749694  0.78013766  0.18911789    -0.06500
N1355       N  0.79269362  0.79852263  0.16769926    -0.58600
N1356       N  0.81071998  0.72117587  0.21177641    -0.06200
N1357       N  0.83206002  0.70276462  0.20653498    -0.60700
N1358       N  0.78828385  0.72085337  0.18941610    -0.05800
N1359       N  0.79395608  0.70222557  0.16840833    -0.58600
N1360       N  0.80991277  0.78044529  0.21150044    -0.05500
N1361       N  0.83082606  0.79905163  0.20579654    -0.61100
C1362       C  0.81968482  0.81017851  0.17852638     0.95700
C1363       C  0.82122146  0.69109114  0.17952205     0.95500
N1364       N  0.78901490  0.72100467  0.31011769    -0.06700
N1365       N  0.79476585  0.70242503  0.33114962    -0.59200
N1366       N  0.81045149  0.78055087  0.28764510    -0.04800
N1367       N  0.83135879  0.79921282  0.29316475    -0.60500
N1368       N  0.78815700  0.78029351  0.31013563    -0.06700
N1369       N  0.79332399  0.79879582  0.33136804    -0.59500
N1370       N  0.81126701  0.72124254  0.28758485    -0.04400
N1371       N  0.83262056  0.70281355  0.29276447    -0.60500
Mn1372     Mn  0.81153681  0.75089870  0.24960879     1.18400
C1373       C  0.82192063  0.69122751  0.31991545     0.97800
C1374       C  0.82023435  0.81044995  0.32039224     0.98400
N1375       N  0.71221091  0.72038970  0.18995060    -0.06700
N1376       N  0.70661092  0.70179121  0.16890735    -0.63000
N1377       N  0.68954366  0.77969615  0.21240536    -0.05500
N1378       N  0.66832066  0.79822746  0.20727033    -0.63700
N1379       N  0.71165037  0.77972234  0.18971275    -0.06200
N1380       N  0.70592448  0.79828421  0.16863915    -0.63300
N1381       N  0.69006905  0.72041339  0.21260970    -0.05100
N1382       N  0.66899182  0.70182938  0.20752122    -0.64000
Mn1383     Mn  0.74989700  0.75024684  0.18854011     1.10700
C1384       C  0.67970099  0.69035837  0.18029990     0.99000
C1385       C  0.67894040  0.80967444  0.18000088     0.99100
N1386       N  0.71261661  0.77981681  0.31065960    -0.06300
N1387       N  0.70740634  0.79836556  0.33183777    -0.61600
N1388       N  0.69054215  0.72050959  0.28849520    -0.05600
N1389       N  0.66949886  0.70200366  0.29422623    -0.58400
N1390       N  0.71316774  0.72053775  0.31065401    -0.06900
N1391       N  0.70802837  0.70204242  0.33193120    -0.61200
N1392       N  0.69004683  0.77980617  0.28844668    -0.05900
N1393       N  0.66893352  0.79834780  0.29407312    -0.58400
Mn1394     Mn  0.75074705  0.75038033  0.31131257     1.20200
Mn1395     Mn  0.68909685  0.75011874  0.25047515     1.09100
Cl1396     Cl  0.75032035  0.75040953  0.24997180    -0.86300
C1397       C  0.68019097  0.80977329  0.32110156     0.96000
C1398       C  0.68081836  0.69062751  0.32126322     0.95800
C1399       C  0.60014935  0.60815487  0.12161746     0.29400
C1400       C  0.60088635  0.62363656  0.14933454    -0.37000
C1401       C  0.62697559  0.64063074  0.15182880     0.15400
C1402       C  0.65071123  0.64231087  0.12865774     0.21200
C1403       C  0.64997704  0.62682637  0.10094475    -0.35100
C1404       C  0.62388849  0.60983335  0.09844990     0.15300
O1405       O  0.57817355  0.59073894  0.11450313    -0.27100
C1406       C  0.58798682  0.58118659  0.08642389     0.05100
C1407       C  0.61625421  0.59233021  0.07524689    -0.32000
O1408       O  0.67266303  0.65975202  0.13574588    -0.23800
C1409       C  0.66284161  0.66931925  0.16381327    -0.03800
C1410       C  0.63459220  0.65815791  0.17501144    -0.18200
H1411       H  0.58242871  0.62250796  0.16765919     0.19800
H1412       H  0.66842700  0.62796464  0.08261096     0.18100
H1413       H  0.62941942  0.58792727  0.05341864     0.18100
H1414       H  0.62141473  0.66257844  0.19682536     0.13900
C1415       C  0.62198345  0.60800254  0.40014141     0.29400
C1416       C  0.64972549  0.62336019  0.39957230    -0.37000
C1417       C  0.65220400  0.64067860  0.37373010     0.15400
C1418       C  0.62899423  0.64275583  0.35007449     0.21200
C1419       C  0.60125413  0.62740174  0.35064470    -0.35100
C1420       C  0.59877695  0.61008519  0.37648352     0.15300
O1421       O  0.61485057  0.59037938  0.42190866    -0.27100
C1422       C  0.58672752  0.58109796  0.41204332     0.05100
C1423       C  0.57553655  0.59261211  0.38393570    -0.32000
O1424       O  0.63612208  0.66036692  0.32829608    -0.23800
C1425       C  0.66424658  0.66965233  0.33814410    -0.03800
C1426       C  0.67544653  0.65815131  0.36625918    -0.18200
H1427       H  0.66807993  0.62189939  0.41796654     0.19800
H1428       H  0.58290361  0.62885995  0.33224972     0.18100
H1429       H  0.55364955  0.58850625  0.37079498     0.18100
H1430       H  0.69733929  0.66226150  0.37938735     0.13900
C1431       C  0.65027896  0.85802390  0.12850093     0.29400
C1432       C  0.64979186  0.87366621  0.10091296    -0.37000
C1433       C  0.62375086  0.89076353  0.09834773     0.15400
C1434       C  0.59983142  0.89239184  0.12133840     0.21200
C1435       C  0.60031435  0.87674353  0.14892553    -0.35100
C1436       C  0.62635988  0.85964614  0.15149298     0.15300
O1437       O  0.67216553  0.84048887  0.13562896    -0.27100
C1438       C  0.66211924  0.83079324  0.16353809     0.05100
C1439       C  0.63378810  0.84197412  0.17460449    -0.32000
O1440       O  0.57798329  0.90996685  0.11423228    -0.23800
C1441       C  0.58806125  0.91967672  0.08633994    -0.03800
C1442       C  0.61636621  0.90846443  0.07526275    -0.18200
H1443       H  0.66839744  0.87257824  0.08273319     0.19800
H1444       H  0.58171976  0.87784476  0.16711795     0.18100
H1445       H  0.62045323  0.83748868  0.19629317     0.18100
H1446       H  0.62973031  0.91296533  0.05359793     0.13900
C1447       C  0.90080932  0.60842244  0.12145207     0.29400
C1448       C  0.90011564  0.62410364  0.14899724    -0.37000
C1449       C  0.87404400  0.64119657  0.15133077     0.15400
C1450       C  0.85028176  0.64278677  0.12817177     0.21200
C1451       C  0.85098376  0.62711488  0.10062095    -0.35100
C1452       C  0.87705110  0.61001995  0.09828984     0.15300
O1453       O  0.92272742  0.59085071  0.11453384    -0.27100
C1454       C  0.91284507  0.58110926  0.08659378     0.05100
C1455       C  0.88460608  0.59229571  0.07530463    -0.32000
O1456       O  0.82830609  0.66029844  0.13513663    -0.23800
C1457       C  0.83815359  0.67001230  0.16310283    -0.03800
C1458       C  0.86643481  0.65887187  0.17435949    -0.18200
H1459       H  0.91857044  0.62302915  0.16732938     0.19800
H1460       H  0.83250828  0.62816923  0.08230480     0.18100
H1461       H  0.87140294  0.58777516  0.05354878     0.18100
H1462       H  0.87960352  0.66336449  0.19614616     0.13900
C1463       C  0.87173877  0.85846147  0.34946994     0.29400
C1464       C  0.89943772  0.87385320  0.35029867    -0.37000
C1465       C  0.90176307  0.89101836  0.37630957     0.15400
C1466       C  0.87845725  0.89293807  0.39989446     0.21200
C1467       C  0.85075082  0.87755421  0.39905810    -0.35100
C1468       C  0.84843045  0.86038259  0.37305236     0.15300
O1469       O  0.86477747  0.84090520  0.32755761    -0.27100
C1470       C  0.83666495  0.83150011  0.33726490     0.05100
C1471       C  0.82531058  0.84287633  0.36539582    -0.32000
O1472       O  0.88547967  0.91042564  0.42187348    -0.23800
C1473       C  0.91363097  0.91978447  0.41220747    -0.03800
C1474       C  0.92494298  0.90845400  0.38403141    -0.18200
H1475       H  0.91788970  0.87251406  0.33198511     0.19800
H1476       H  0.83232020  0.87886774  0.41739596     0.18100
H1477       H  0.80341229  0.83863143  0.37844975     0.18100
H1478       H  0.94688008  0.91265337  0.37102033     0.13900
C1479       C  0.90079995  0.60841043  0.37863460     0.29400
C1480       C  0.90061859  0.62429609  0.35125683    -0.37000
C1481       C  0.87452636  0.64133102  0.34856295     0.15400
C1482       C  0.85028738  0.64266986  0.37124446     0.21200
C1483       C  0.85046989  0.62678714  0.39862003    -0.35100
C1484       C  0.87655931  0.60975456  0.40131353     0.15300
O1485       O  0.92267996  0.59089348  0.38584258    -0.27100
C1486       C  0.91230465  0.58094007  0.41348901     0.05100
C1487       C  0.88375999  0.59192068  0.42429943    -0.32000
O1488       O  0.82839175  0.66017036  0.36403609    -0.23800
C1489       C  0.83874867  0.67012505  0.33638603    -0.03800
C1490       C  0.86730375  0.65915987  0.32557105    -0.18200
H1491       H  0.91947130  0.62341874  0.33331584     0.19800
H1492       H  0.83161394  0.62766002  0.41655599     0.18100
H1493       H  0.87016632  0.58722337  0.44575249     0.18100
H1494       H  0.88088131  0.66385603  0.30410705     0.13900
C1495       C  0.62174619  0.89251689  0.40026331     0.29400
C1496       C  0.64920147  0.87676772  0.39982973    -0.37000
C1497       C  0.65174169  0.85971180  0.37372143     0.15400
C1498       C  0.62885161  0.85821479  0.34969231     0.21200
C1499       C  0.60139709  0.87396561  0.35012479    -0.35100
C1500       C  0.59885736  0.89102278  0.37623267     0.15300
O1501       O  0.61465051  0.91003854  0.42219582    -0.27100
C1502       C  0.58686577  0.91984280  0.41205916     0.05100
C1503       C  0.57585573  0.90875901  0.38362937    -0.32000
O1504       O  0.63594621  0.84068957  0.32776288    -0.23800
C1505       C  0.66373289  0.83088874  0.33789948    -0.03800
C1506       C  0.67474459  0.84197773  0.36632537    -0.18200
H1507       H  0.66730914  0.87775562  0.41851254     0.19800
H1508       H  0.58328936  0.87297768  0.33144203     0.18100
H1509       H  0.55426229  0.91334110  0.37021797     0.18100
H1510       H  0.69633937  0.83739932  0.37973578     0.13900
C1511       C  0.87948925  0.89202970  0.09908623     0.29400
C1512       C  0.85255257  0.87576581  0.09871020    -0.37000
C1513       C  0.84919022  0.85929087  0.12530228     0.15400
C1514       C  0.87085843  0.85881168  0.15050606     0.21200
C1515       C  0.89779314  0.87507047  0.15087959    -0.35100
C1516       C  0.90115461  0.89154297  0.12429196     0.15300
O1517       O  0.88715403  0.90915768  0.07688722    -0.27100
C1518       C  0.91409727  0.91970132  0.08800833     0.05100
C1519       C  0.92397939  0.90950826  0.11737473    -0.32000
O1520       O  0.86319588  0.84170166  0.17272075    -0.23800
C1521       C  0.83624983  0.83115428  0.16162122    -0.03800
C1522       C  0.82636040  0.84132771  0.13224294    -0.18200
H1523       H  0.83541066  0.87597051  0.07909625     0.19800
H1524       H  0.91493175  0.87486947  0.17049710     0.18100
H1525       H  0.94471391  0.91480811  0.13167594     0.18100
H1526       H  0.80562014  0.83602310  0.11795815     0.13900
N1527       N  0.96247296  0.97067195  0.93966989    -0.06500
N1528       N  0.95720322  0.95226213  0.91833823    -0.58600
N1529       N  0.93957515  0.52974903  0.96227932    -0.06200
N1530       N  0.91829233  0.54822601  0.95708590    -0.60700
N1531       N  0.96186134  0.52995304  0.93978001    -0.05800
N1532       N  0.95620332  0.54855828  0.91875578    -0.58600
N1533       N  0.94013695  0.97045163  0.96212087    -0.05500
N1534       N  0.91910101  0.95190752  0.95647478    -0.61100
C1535       C  0.93018878  0.94070200  0.92921234     0.95700
C1536       C  0.92906966  0.55980714  0.92996329     0.95500
N1537       N  0.96240776  0.53000927  0.56047370    -0.06700
N1538       N  0.95683124  0.54868969  0.58143514    -0.59200
N1539       N  0.94056726  0.97047022  0.53827759    -0.04800
N1540       N  0.91960680  0.95187979  0.54390494    -0.60500
N1541       N  0.96295241  0.97071170  0.56069171    -0.06700
N1542       N  0.95769142  0.95229827  0.58205249    -0.59500
N1543       N  0.94000594  0.52975649  0.53807799    -0.04400
N1544       N  0.91878400  0.54826770  0.54324897    -0.60500
Mn1545     Mn  0.93912098  0.00006117  0.50021111     1.18400
C1546       C  0.92965788  0.55992777  0.57025669     0.97800
C1547       C  0.93069174  0.94069470  0.57116330     0.98400
N1548       N  0.53769894  0.53023537  0.93938834    -0.06700
N1549       N  0.54290658  0.54874655  0.91815363    -0.63000
N1550       N  0.56058065  0.97090990  0.96154702    -0.05500
N1551       N  0.58165839  0.95234207  0.95592557    -0.63700
N1552       N  0.53804413  0.97095580  0.93929982    -0.06200
N1553       N  0.54324407  0.95241897  0.91810134    -0.63300
N1554       N  0.56029055  0.53020842  0.96158183    -0.05100
N1555       N  0.58138334  0.54869351  0.95591273    -0.64000
Mn1556     Mn  0.50001705  0.50048286  0.93861655     1.10700
C1557       C  0.57012404  0.56011337  0.92887664     0.99000
C1558       C  0.57041640  0.94095915  0.92886403     0.99100
N1559       N  0.53878951  0.97093511  0.56023520    -0.06300
N1560       N  0.54439369  0.95231766  0.58126708    -0.61600
N1561       N  0.56064255  0.53022215  0.53748050    -0.05600
N1562       N  0.58178565  0.54874400  0.54264569    -0.58400
N1563       N  0.53846668  0.53026907  0.56010561    -0.06900
N1564       N  0.54410771  0.54882120  0.58120177    -0.61200
N1565       N  0.56093398  0.97093677  0.53757940    -0.05900
N1566       N  0.58205968  0.95233264  0.54269637    -0.58400
Mn1567     Mn  0.50066190  0.50050869  0.56138857     1.20200
Mn1568     Mn  0.56156676  0.50055736  0.49956303     1.10100
Cl1569     Cl  0.50034083  0.50040171  0.49995612    -0.86300
C1570       C  0.57134328  0.94086731  0.56991537     0.96000
C1571       C  0.57108065  0.56020143  0.56987798     0.95800
N1572       N  0.78749694  0.78013764  0.68911785    -0.06500
N1573       N  0.79269364  0.79852262  0.66769922    -0.58600
N1574       N  0.81071997  0.72117590  0.71177632    -0.06200
N1575       N  0.83206011  0.70276463  0.70653488    -0.60700
N1576       N  0.78828387  0.72085335  0.68941609    -0.05800
N1577       N  0.79395609  0.70222551  0.66840833    -0.58600
N1578       N  0.80991275  0.78044529  0.71150038    -0.05500
N1579       N  0.83082610  0.79905163  0.70579651    -0.61100
C1580       C  0.81968481  0.81017854  0.67852641     0.95700
C1581       C  0.82122154  0.69109120  0.67952198     0.95500
N1582       N  0.78901488  0.72100468  0.81011764    -0.06700
N1583       N  0.79476589  0.70242506  0.83114966    -0.59200
N1584       N  0.81045143  0.78055085  0.78764513    -0.04800
N1585       N  0.83135886  0.79921278  0.79316476    -0.60500
N1586       N  0.78815691  0.78029353  0.81013554    -0.06700
N1587       N  0.79332395  0.79879580  0.83136806    -0.59500
N1588       N  0.81126705  0.72124255  0.78758492    -0.04400
N1589       N  0.83262059  0.70281355  0.79276450    -0.60500
Mn1590     Mn  0.81153677  0.75089870  0.74960880     1.18400
C1591       C  0.82192068  0.69122761  0.81991559     0.97800
C1592       C  0.82023425  0.81044994  0.82039216     0.98400
N1593       N  0.71221090  0.72038972  0.68995053    -0.06700
N1594       N  0.70661093  0.70179119  0.66890736    -0.63000
N1595       N  0.68954364  0.77969616  0.71240542    -0.05500
N1596       N  0.66832072  0.79822743  0.70727031    -0.63700
N1597       N  0.71165039  0.77972233  0.68971262    -0.06200
N1598       N  0.70592456  0.79828418  0.66863917    -0.63300
N1599       N  0.69006916  0.72041336  0.71260977    -0.05100
N1600       N  0.66899183  0.70182944  0.70752123    -0.64000
Mn1601     Mn  0.74989696  0.75024681  0.68854009     1.10700
C1602       C  0.67970100  0.69035840  0.68029988     0.99000
C1603       C  0.67894032  0.80967439  0.68000078     0.99100
N1604       N  0.71261653  0.77981677  0.81065967    -0.06300
N1605       N  0.70740634  0.79836554  0.83183781    -0.61600
N1606       N  0.69054209  0.72050957  0.78849522    -0.05600
N1607       N  0.66949893  0.70200362  0.79422636    -0.58400
N1608       N  0.71316772  0.72053774  0.81065405    -0.06900
N1609       N  0.70802838  0.70204242  0.83193121    -0.61200
N1610       N  0.69004690  0.77980621  0.78844669    -0.05900
N1611       N  0.66893348  0.79834786  0.79407317    -0.58400
Mn1612     Mn  0.75074703  0.75038031  0.81131259     1.20200
Mn1613     Mn  0.68909687  0.75011878  0.75047516     1.09100
Cl1614     Cl  0.75032040  0.75040952  0.74997175    -0.86300
C1615       C  0.68019095  0.80977327  0.82110161     0.96000
C1616       C  0.68081833  0.69062750  0.82126338     0.95800
C1617       C  0.60014918  0.60815493  0.62161752     0.29400
C1618       C  0.60088614  0.62363651  0.64933473    -0.37000
C1619       C  0.62697544  0.64063076  0.65182897     0.15400
C1620       C  0.65071112  0.64231086  0.62865799     0.21200
C1621       C  0.64997716  0.62682640  0.60094462    -0.35100
C1622       C  0.62388829  0.60983338  0.59845024     0.15300
O1623       O  0.57817341  0.59073897  0.61450319    -0.27100
C1624       C  0.58798672  0.58118658  0.58642409     0.05100
C1625       C  0.61625423  0.59233019  0.57524678    -0.32000
O1626       O  0.67266298  0.65975208  0.63574587    -0.23800
C1627       C  0.66284159  0.66931925  0.66381341    -0.03800
C1628       C  0.63459223  0.65815792  0.67501144    -0.18200
H1629       H  0.58242856  0.62250781  0.66765923     0.19800
H1630       H  0.66842519  0.62796459  0.58261258     0.18100
H1631       H  0.62941837  0.58792746  0.55342089     0.18100
H1632       H  0.62141450  0.66257849  0.69682658     0.13900
C1633       C  0.62198343  0.60800260  0.90014148     0.29400
C1634       C  0.64972534  0.62336018  0.89957226    -0.37000
C1635       C  0.65220409  0.64067861  0.87373031     0.15400
C1636       C  0.62899413  0.64275582  0.85007445     0.21200
C1637       C  0.60125428  0.62740171  0.85064486    -0.35100
C1638       C  0.59877677  0.61008518  0.87648333     0.15300
O1639       O  0.61485051  0.59037939  0.92190859    -0.27100
C1640       C  0.58672742  0.58109794  0.91204321     0.05100
C1641       C  0.57553656  0.59261211  0.88393567    -0.32000
O1642       O  0.63612212  0.66036690  0.82829614    -0.23800
C1643       C  0.66424667  0.66965230  0.83814423    -0.03800
C1644       C  0.67544648  0.65815129  0.86625929    -0.18200
H1645       H  0.66808068  0.62189940  0.91796785     0.19800
H1646       H  0.58290201  0.62886012  0.83224826     0.18100
H1647       H  0.55364866  0.58850592  0.87079405     0.18100
H1648       H  0.69734004  0.66226178  0.87938831     0.13900
C1649       C  0.65027913  0.85802391  0.62850070     0.29400
C1650       C  0.64979181  0.87366618  0.60091296    -0.37000
C1651       C  0.62375102  0.89076349  0.59834760     0.15400
C1652       C  0.59983149  0.89239181  0.62133834     0.21200
C1653       C  0.60031440  0.87674352  0.64892553    -0.35100
C1654       C  0.62636002  0.85964618  0.65149276     0.15300
O1655       O  0.67216558  0.84048887  0.63562890    -0.27100
C1656       C  0.66211936  0.83079321  0.66353792     0.05100
C1657       C  0.63378812  0.84197408  0.67460453    -0.32000
O1658       O  0.57798333  0.90996684  0.61423226    -0.23800
C1659       C  0.58806134  0.91967675  0.58633999    -0.03800
C1660       C  0.61636614  0.90846437  0.57526275    -0.18200
H1661       H  0.66839907  0.87257818  0.58273178     0.19800
H1662       H  0.58172025  0.87784474  0.66711762     0.18100
H1663       H  0.62045447  0.83748895  0.69629162     0.18100
H1664       H  0.62973033  0.91296540  0.55359771     0.13900
C1665       C  0.90080950  0.60842237  0.62145219     0.29400
C1666       C  0.90011549  0.62410363  0.64899709    -0.37000
C1667       C  0.87404414  0.64119660  0.65133084     0.15400
C1668       C  0.85028189  0.64278679  0.62817186     0.21200
C1669       C  0.85098378  0.62711493  0.60062091    -0.35100
C1670       C  0.87705119  0.61001988  0.59828986     0.15300
O1671       O  0.92272737  0.59085057  0.61453382    -0.27100
C1672       C  0.91284492  0.58110916  0.58659370     0.05100
C1673       C  0.88460616  0.59229573  0.57530482    -0.32000
O1674       O  0.82830616  0.66029850  0.63513659    -0.23800
C1675       C  0.83815365  0.67001237  0.66310277    -0.03800
C1676       C  0.86643481  0.65887194  0.67435949    -0.18200
H1677       H  0.91857193  0.62302893  0.66733117     0.19800
H1678       H  0.83250962  0.62816931  0.58230582     0.18100
H1679       H  0.87140197  0.58777482  0.55354689     0.18100
H1680       H  0.87960339  0.66336455  0.69614598     0.13900
C1681       C  0.87173842  0.85846150  0.84947014     0.29400
C1682       C  0.89943796  0.87385320  0.85029837    -0.37000
C1683       C  0.90176310  0.89101856  0.87630968     0.15400
C1684       C  0.87845749  0.89293810  0.89989439     0.21200
C1685       C  0.85075061  0.87755429  0.89905835    -0.35100
C1686       C  0.84843050  0.86038251  0.87305233     0.15300
O1687       O  0.86477736  0.84090517  0.82755768    -0.27100
C1688       C  0.83666484  0.83150005  0.83726498     0.05100
C1689       C  0.82531048  0.84287625  0.86539594    -0.32000
O1690       O  0.88547967  0.91042568  0.92187343    -0.23800
C1691       C  0.91363120  0.91978449  0.91220735    -0.03800
C1692       C  0.92494278  0.90845402  0.88403148    -0.18200
H1693       H  0.91788669  0.87251418  0.83198806     0.19800
H1694       H  0.83232237  0.87886763  0.91739431     0.18100
H1695       H  0.80341238  0.83863130  0.87844983     0.18100
H1696       H  0.94688294  0.91265385  0.87101856     0.13900
C1697       C  0.90079984  0.60841039  0.87863468     0.29400
C1698       C  0.90061860  0.62429602  0.85125677    -0.37000
C1699       C  0.87452630  0.64133105  0.84856281     0.15400
C1700       C  0.85028741  0.64266990  0.87124446     0.21200
C1701       C  0.85046988  0.62678708  0.89862006    -0.35100
C1702       C  0.87655931  0.60975447  0.90131361     0.15300
O1703       O  0.92267990  0.59089347  0.88584263    -0.27100
C1704       C  0.91230452  0.58094002  0.91348913     0.05100
C1705       C  0.88376005  0.59192068  0.92429935    -0.32000
O1706       O  0.82839184  0.66017041  0.86403605    -0.23800
C1707       C  0.83874890  0.67012510  0.83638583    -0.03800
C1708       C  0.86730362  0.65915974  0.82557132    -0.18200
H1709       H  0.91947025  0.62341866  0.83331657     0.19800
H1710       H  0.83161449  0.62766015  0.91655616     0.18100
H1711       H  0.87016538  0.58722296  0.94575364     0.18100
H1712       H  0.88088334  0.66385659  0.80410402     0.13900
C1713       C  0.62174604  0.89251684  0.90026333     0.29400
C1714       C  0.64920151  0.87676776  0.89982986    -0.37000
C1715       C  0.65174149  0.85971179  0.87372144     0.15400
C1716       C  0.62885152  0.85821480  0.84969217     0.21200
C1717       C  0.60139720  0.87396558  0.85012491    -0.35100
C1718       C  0.59885740  0.89102277  0.87623255     0.15300
O1719       O  0.61465055  0.91003856  0.92219586    -0.27100
C1720       C  0.58686586  0.91984277  0.91205933     0.05100
C1721       C  0.57585562  0.90875906  0.88362936    -0.32000
O1722       O  0.63594620  0.84068956  0.82776285    -0.23800
C1723       C  0.66373281  0.83088873  0.83789953    -0.03800
C1724       C  0.67474469  0.84197774  0.86632557    -0.18200
H1725       H  0.66730791  0.87775550  0.91851179     0.19800
H1726       H  0.58328809  0.87297764  0.83144039     0.18100
H1727       H  0.55426365  0.91334081  0.87021913     0.18100
H1728       H  0.69633810  0.83739945  0.87973573     0.13900
C1729       C  0.87948914  0.89202969  0.59908614     0.29400
C1730       C  0.85255270  0.87576584  0.59871028    -0.37000
C1731       C  0.84919000  0.85929090  0.62530205     0.15400
C1732       C  0.87085846  0.85881170  0.65050602     0.21200
C1733       C  0.89779298  0.87507046  0.65087937    -0.35100
C1734       C  0.90115467  0.89154290  0.62429201     0.15300
O1735       O  0.88715405  0.90915770  0.57688722    -0.27100
C1736       C  0.91409727  0.91970126  0.58800818     0.05100
C1737       C  0.92397944  0.90950834  0.61737472    -0.32000
O1738       O  0.86319575  0.84170167  0.67272055    -0.23800
C1739       C  0.83624968  0.83115424  0.66162100    -0.03800
C1740       C  0.82636053  0.84132780  0.63224300    -0.18200
H1741       H  0.83540941  0.87597070  0.57909475     0.19800
H1742       H  0.91493306  0.87486949  0.67049873     0.18100
H1743       H  0.94471318  0.91480791  0.63167516     0.18100
H1744       H  0.80561827  0.83602279  0.61795700     0.13900
loop_ 
_geom_bond_atom_site_label_1 
_geom_bond_atom_site_label_2 
_geom_bond_distance 
_geom_bond_site_symmetry_2 
_ccdc_geom_bond_type 
N1            N2   1.319       .  A
N1            N7   1.316       .  A
N1        Mn1338   2.198       .  S
N2            C9   1.351       .  A
N3            N5   1.316       .  A
N3            N4   1.320       .  A
N3         Mn673   2.200       .  S
N4           C10   1.352       .  A
N5            N6   1.320       .  A
N5         Mn902   2.200       .  S
N6           C10   1.352       .  A
N7            N8   1.321       .  A
N7         Mn237   2.202       .  S
N8            C9   1.352       .  A
C9          C165   1.465       .  S
C10         C178   1.466       .  S
N11          N17   1.316       .  A
N11          N12   1.321       .  A
N11        Mn913   2.204       .  S
N12          C20   1.352       .  A
N13          N14   1.320       .  A
N13          N15   1.316       .  A
N13         Mn19   2.201       .  S
N14          C21   1.351       .  A
N15          N16   1.320       .  A
N15       Mn1349   2.202       .  S
N16          C21   1.352       .  A
N17          N18   1.319       .  A
N17        Mn455   2.199       .  S
N18          C20   1.351       .  A
Mn19        N657   2.200   1_554  S
Mn19        N225   2.202   1_554  S
Mn19        N453   2.199       .  S
Mn19      Cl1351   2.546   1_554  S
C20         C146   1.466       .  S
C21         C210   1.466       .  S
N22          N23   1.320       .  A
N22          N28   1.316       .  A
N22         Mn30   2.199       .  S
N23          C31   1.352       .  A
N24          N26   1.316       .  A
N24          N25   1.321       .  A
N24        Mn696   2.202       .  S
N25          C32   1.352       .  A
N26          N27   1.320       .  A
N26        Mn466   2.198       .  S
N27          C32   1.351       .  A
N28          N29   1.320       .  A
N28        Mn260   2.201       .  S
N29          C31   1.352       .  A
Mn30       N1309   2.198   1_445  S
Mn30        N877   2.200   1_455  S
Mn30        N462   2.198   1_545  S
Mn30       Cl261   2.546       .  S
C31         C114   1.465       .  S
C32         C194   1.465       .  S
N33          N34   1.321       .  A
N33          N39   1.316       .  A
N33        Mn477   2.203       .  S
N34          C44   1.352       .  A
N35          N36   1.320       .  A
N35          N37   1.316       .  A
N35         Mn42   2.199   1_554  S
N36          C45   1.351       .  A
N37          N38   1.321       .  A
N37         Mn41   2.204       .  S
N38          C45   1.352       .  A
N39          N40   1.320       .  A
N39        Mn478   2.200   1_554  S
N40          C44   1.352       .  A
Mn41        N883   2.204   1_455  S
Mn41       N1323   2.202   1_445  S
Mn41        N469   2.203   1_545  S
Mn41        Cl43   2.549   1_554  S
Mn42        N678   2.202   1_545  S
Mn42        N246   2.201       .  S
Mn42        N475   2.200   1_546  S
Mn42        Cl43   2.547       .  S
Cl43      Mn1327   2.546   1_456  S
Cl43       Mn248   2.546       .  S
C44         C133   1.466       .  S
C45          C98   1.466       .  S
N46          N47   1.320       .  A
N46          N52   1.316       .  A
N46         Mn75   2.202       .  S
N47          C54   1.352       .  A
N48          N50   1.316       .  A
N48          N49   1.319       .  A
N48         Mn64   2.199       .  S
N49          C55   1.351       .  A
N50          N51   1.321       .  A
N50         Mn75   2.204       .  S
N51          C55   1.352       .  A
N52          N53   1.320       .  A
N52         Mn64   2.201       .  S
N53          C54   1.351       .  A
C54         C213   1.466       .  S
C55         C149   1.466       .  S
N56          N62   1.316       .  A
N56          N57   1.320       .  A
N56         Mn86   2.200       .  S
N57          C65   1.352       .  A
N58          N59   1.321       .  A
N58          N60   1.316       .  A
N58         Mn64   2.202       .  S
N59          C66   1.352       .  A
N60          N61   1.319       .  A
N60         Mn86   2.197       .  S
N61          C66   1.351       .  A
N62          N63   1.320       .  A
N62         Mn64   2.200       .  S
N63          C65   1.352       .  A
Mn64        Cl88   2.546       .  S
C65         C181   1.466       .  S
C66         C162   1.465       .  S
N67          N68   1.321       .  A
N67          N73   1.316       .  A
N67         Mn75   2.204       .  S
N68          C76   1.352       .  A
N69          N71   1.316       .  A
N69          N70   1.320       .  A
N69         Mn87   2.200       .  S
N70          C77   1.352       .  A
N71          N72   1.321       .  A
N71         Mn75   2.203       .  S
N72          C77   1.352       .  A
N73          N74   1.320       .  A
N73         Mn87   2.199       .  S
N74          C76   1.351       .  A
Mn75        Cl88   2.549       .  S
C76         C101   1.466       .  S
C77         C130   1.466       .  S
N78          N79   1.319       .  A
N78          N84   1.316       .  A
N78         Mn86   2.198       .  S
N79          C89   1.351       .  A
N80          N81   1.320       .  A
N80          N82   1.316       .  A
N80         Mn87   2.200       .  S
N81          C90   1.351       .  A
N82          N83   1.320       .  A
N82         Mn86   2.200       .  S
N83          C90   1.352       .  A
N84          N85   1.321       .  A
N84         Mn87   2.202       .  S
N85          C89   1.352       .  A
Mn86        Cl88   2.546       .  S
Mn87        Cl88   2.546       .  S
C89         C197   1.465       .  S
C90         C117   1.465       .  S
C91          C96   1.381       .  A
C91          C92   1.402       .  A
C91          O97   1.318       .  A
C92          C93   1.402       .  A
C92         H103   1.082       .  S
C93         C102   1.360       .  A
C93          C94   1.381       .  A
C94          C95   1.402       .  A
C94         O100   1.318       .  A
C95          C96   1.402       .  A
C95         H104   1.082       .  S
C96          C99   1.360       .  A
O97          C98   1.330       .  A
C98          C99   1.390       .  A
C99         H105   1.083       .  S
O100        C101   1.330       .  A
C101        C102   1.390       .  A
C102        H106   1.082       .  S
C107        C112   1.381       .  A
C107        C108   1.402       .  A
C107        O113   1.318       .  A
C108        C109   1.402       .  A
C108        H119   1.082       .  S
C109        C118   1.361       .  A
C109        C110   1.381       .  A
C110        C111   1.402       .  A
C110        O116   1.318       .  A
C111        C112   1.401       .  A
C111        H120   1.082       .  S
C112        C115   1.360       .  A
O113        C114   1.330       .  A
C114        C115   1.390       .  A
C115        H121   1.082       .  S
O116        C117   1.330       .  A
C117        C118   1.390       .  A
C118        H122   1.083       .  S
C123        C128   1.381       .  A
C123        C124   1.402       .  A
C123        O129   1.318       .  A
C124        C125   1.402       .  A
C124        H135   1.082       .  S
C125        C134   1.360       .  A
C125        C126   1.381       .  A
C126        C127   1.403       .  A
C126        O132   1.318       .  A
C127        C128   1.402       .  A
C127        H136   1.082       .  S
C128        C131   1.361       .  A
O129        C130   1.330       .  A
C130        C131   1.390       .  A
C131        H137   1.083       .  S
O132        C133   1.330       .  A
C133        C134   1.390       .  A
C134        H138   1.083       .  S
C139        C144   1.381       .  A
C139        C140   1.402       .  A
C139        O145   1.318       .  A
C140        C141   1.402       .  A
C140        H151   1.082       .  S
C141        C150   1.360       .  A
C141        C142   1.381       .  A
C142        C143   1.402       .  A
C142        O148   1.318       .  A
C143        C144   1.402       .  A
C143        H152   1.082       .  S
C144        C147   1.360       .  A
O145        C146   1.330       .  A
C146        C147   1.390       .  A
C147        H153   1.083       .  S
O148        C149   1.330       .  A
C149        C150   1.390       .  A
C150        H154   1.083       .  S
C155        C160   1.381       .  A
C155        C156   1.402       .  A
C155        O161   1.318       .  A
C156        C157   1.402       .  A
C156        H167   1.082       .  S
C157        C166   1.360       .  A
C157        C158   1.381       .  A
C158        C159   1.402       .  A
C158        O164   1.318       .  A
C159        C160   1.402       .  A
C159        H168   1.082       .  S
C160        C163   1.360       .  A
O161        C162   1.330       .  A
C162        C163   1.390       .  A
C163        H169   1.083       .  S
O164        C165   1.330       .  A
C165        C166   1.390       .  A
C166        H170   1.082       .  S
C171        C176   1.381       .  A
C171        C172   1.402       .  A
C171        O177   1.318       .  A
C172        C173   1.402       .  A
C172        H183   1.082       .  S
C173        C182   1.361       .  A
C173        C174   1.381       .  A
C174        C175   1.402       .  A
C174        O180   1.318       .  A
C175        C176   1.402       .  A
C175        H184   1.082       .  S
C176        C179   1.360       .  A
O177        C178   1.330       .  A
C178        C179   1.390       .  A
C179        H185   1.083       .  S
O180        C181   1.330       .  A
C181        C182   1.390       .  A
C182        H186   1.082       .  S
C187        C192   1.381       .  A
C187        C188   1.402       .  A
C187        O193   1.318       .  A
C188        C189   1.402       .  A
C188        H199   1.082       .  S
C189        C198   1.360       .  A
C189        C190   1.381       .  A
C190        C191   1.402       .  A
C190        O196   1.318       .  A
C191        C192   1.402       .  A
C191        H200   1.082       .  S
C192        C195   1.360       .  A
O193        C194   1.330       .  A
C194        C195   1.390       .  A
C195        H201   1.083       .  S
O196        C197   1.330       .  A
C197        C198   1.390       .  A
C198        H202   1.083       .  S
C203        C208   1.381       .  A
C203        C204   1.403       .  A
C203        O209   1.318       .  A
C204        C205   1.402       .  A
C204        H215   1.082       .  S
C205        C214   1.361       .  A
C205        C206   1.381       .  A
C206        C207   1.402       .  A
C206        O212   1.318       .  A
C207        C208   1.402       .  A
C207        H216   1.082       .  S
C208        C211   1.361       .  A
O209        C210   1.330       .  A
C210        C211   1.390       .  A
C211        H217   1.083       .  S
O212        C213   1.330       .  A
C213        C214   1.390       .  A
C214        H218   1.083       .  S
N219        N220   1.319       .  A
N219        N225   1.316       .  A
N219      Mn1556   2.198       .  S
N220        C227   1.351       .  A
N221        N223   1.316       .  A
N221        N222   1.320       .  A
N221       Mn455   2.200   1_556  S
N222        C228   1.352       .  A
N223        N224   1.320       .  A
N223      Mn1120   2.200       .  S
N224        C228   1.352       .  A
N225        N226   1.321       .  A
N226        C227   1.352       .  A
C227        C383   1.465       .  S
C228        C396   1.466       .  S
N229        N235   1.316       .  A
N229        N230   1.321       .  A
N229      Mn1131   2.204       .  S
N230        C238   1.352       .  A
N231        N232   1.320       .  A
N231        N233   1.316       .  A
N231       Mn237   2.201       .  S
N232        C239   1.351       .  A
N233        N234   1.320       .  A
N233      Mn1567   2.202       .  S
N234        C239   1.352       .  A
N235        N236   1.319       .  A
N235       Mn673   2.199       .  S
N236        C238   1.351       .  A
Mn237       N439   2.200       .  S
Mn237       N671   2.199       .  S
Mn237     Cl1569   2.546       .  S
C238        C364   1.466       .  S
C239        C428   1.466       .  S
N240        N241   1.320       .  A
N240        N246   1.316       .  A
N240       Mn248   2.199       .  S
N241        C249   1.352       .  A
N242        N244   1.316       .  A
N242        N243   1.321       .  A
N242       Mn478   2.202       .  S
N243        C250   1.352       .  A
N244        N245   1.319       .  A
N244       Mn684   2.198       .  S
N245        C250   1.351       .  A
N246        N247   1.320       .  A
N247        C249   1.352       .  A
Mn248      N1527   2.198   1_445  S
Mn248      N1095   2.200   1_455  S
Mn248       N680   2.198   1_545  S
C249        C332   1.465       .  S
C250        C412   1.465       .  S
N251        N252   1.321       .  A
N251        N257   1.316       .  A
N251       Mn695   2.203       .  S
N252        C262   1.352       .  A
N253        N254   1.320       .  A
N253        N255   1.316       .  A
N253       Mn260   2.199       .  S
N254        C263   1.351       .  A
N255        N256   1.321       .  A
N255       Mn259   2.204       .  S
N256        C263   1.352       .  A
N257        N258   1.320       .  A
N257       Mn696   2.200       .  S
N258        C262   1.352       .  A
Mn259      N1101   2.204   1_455  S
Mn259      N1541   2.202   1_445  S
Mn259       N687   2.203   1_545  S
Mn259      Cl261   2.549       .  S
Mn260       N460   2.202   1_545  S
Mn260       N693   2.200   1_545  S
Mn260      Cl261   2.547       .  S
Cl261     Mn1545   2.546   1_455  S
C262        C351   1.466       .  S
C263        C316   1.466       .  S
N264        N265   1.320       .  A
N264        N270   1.316       .  A
N264       Mn293   2.202       .  S
N265        C272   1.352       .  A
N266        N268   1.316       .  A
N266        N267   1.319       .  A
N266       Mn282   2.199       .  S
N267        C273   1.351       .  A
N268        N269   1.321       .  A
N268       Mn293   2.204       .  S
N269        C273   1.352       .  A
N270        N271   1.320       .  A
N270       Mn282   2.201       .  S
N271        C272   1.351       .  A
C272        C431   1.466       .  S
C273        C367   1.466       .  S
N274        N280   1.316       .  A
N274        N275   1.320       .  A
N274       Mn304   2.200       .  S
N275        C283   1.352       .  A
N276        N277   1.321       .  A
N276        N278   1.316       .  A
N276       Mn282   2.202       .  S
N277        C284   1.352       .  A
N278        N279   1.319       .  A
N278       Mn304   2.197       .  S
N279        C284   1.351       .  A
N280        N281   1.320       .  A
N280       Mn282   2.200       .  S
N281        C283   1.352       .  A
Mn282      Cl306   2.546       .  S
C283        C399   1.466       .  S
C284        C380   1.465       .  S
N285        N286   1.321       .  A
N285        N291   1.316       .  A
N285       Mn293   2.204       .  S
N286        C294   1.352       .  A
N287        N289   1.316       .  A
N287        N288   1.320       .  A
N287       Mn305   2.200       .  S
N288        C295   1.352       .  A
N289        N290   1.321       .  A
N289       Mn293   2.203       .  S
N290        C295   1.352       .  A
N291        N292   1.320       .  A
N291       Mn305   2.199       .  S
N292        C294   1.351       .  A
Mn293      Cl306   2.549       .  S
C294        C319   1.466       .  S
C295        C348   1.466       .  S
N296        N297   1.319       .  A
N296        N302   1.316       .  A
N296       Mn304   2.198       .  S
N297        C307   1.351       .  A
N298        N299   1.320       .  A
N298        N300   1.316       .  A
N298       Mn305   2.200       .  S
N299        C308   1.351       .  A
N300        N301   1.320       .  A
N300       Mn304   2.200       .  S
N301        C308   1.352       .  A
N302        N303   1.321       .  A
N302       Mn305   2.202       .  S
N303        C307   1.352       .  A
Mn304      Cl306   2.546       .  S
Mn305      Cl306   2.546       .  S
C307        C415   1.465       .  S
C308        C335   1.465       .  S
C309        C314   1.381       .  A
C309        C310   1.402       .  A
C309        O315   1.318       .  A
C310        C311   1.402       .  A
C310        H321   1.082       .  S
C311        C320   1.360       .  A
C311        C312   1.381       .  A
C312        C313   1.402       .  A
C312        O318   1.318       .  A
C313        C314   1.402       .  A
C313        H322   1.082       .  S
C314        C317   1.360       .  A
O315        C316   1.330       .  A
C316        C317   1.390       .  A
C317        H323   1.082       .  S
O318        C319   1.330       .  A
C319        C320   1.390       .  A
C320        H324   1.083       .  S
C325        C330   1.381       .  A
C325        C326   1.402       .  A
C325        O331   1.318       .  A
C326        C327   1.402       .  A
C326        H337   1.082       .  S
C327        C336   1.361       .  A
C327        C328   1.381       .  A
C328        C329   1.402       .  A
C328        O334   1.318       .  A
C329        C330   1.401       .  A
C329        H338   1.082       .  S
C330        C333   1.360       .  A
O331        C332   1.330       .  A
C332        C333   1.390       .  A
C333        H339   1.083       .  S
O334        C335   1.330       .  A
C335        C336   1.390       .  A
C336        H340   1.082       .  S
C341        C346   1.381       .  A
C341        C342   1.402       .  A
C341        O347   1.318       .  A
C342        C343   1.402       .  A
C342        H353   1.082       .  S
C343        C352   1.360       .  A
C343        C344   1.381       .  A
C344        C345   1.403       .  A
C344        O350   1.318       .  A
C345        C346   1.402       .  A
C345        H354   1.082       .  S
C346        C349   1.361       .  A
O347        C348   1.330       .  A
C348        C349   1.390       .  A
C349        H355   1.083       .  S
O350        C351   1.330       .  A
C351        C352   1.390       .  A
C352        H356   1.083       .  S
C357        C362   1.381       .  A
C357        C358   1.402       .  A
C357        O363   1.318       .  A
C358        C359   1.402       .  A
C358        H369   1.082       .  S
C359        C368   1.360       .  A
C359        C360   1.381       .  A
C360        C361   1.402       .  A
C360        O366   1.318       .  A
C361        C362   1.402       .  A
C361        H370   1.082       .  S
C362        C365   1.360       .  A
O363        C364   1.330       .  A
C364        C365   1.390       .  A
C365        H371   1.083       .  S
O366        C367   1.330       .  A
C367        C368   1.390       .  A
C368        H372   1.083       .  S
C373        C378   1.381       .  A
C373        C374   1.402       .  A
C373        O379   1.318       .  A
C374        C375   1.402       .  A
C374        H385   1.082       .  S
C375        C384   1.360       .  A
C375        C376   1.381       .  A
C376        C377   1.402       .  A
C376        O382   1.318       .  A
C377        C378   1.402       .  A
C377        H386   1.082       .  S
C378        C381   1.360       .  A
O379        C380   1.330       .  A
C380        C381   1.390       .  A
C381        H387   1.083       .  S
O382        C383   1.330       .  A
C383        C384   1.390       .  A
C384        H388   1.083       .  S
C389        C394   1.381       .  A
C389        C390   1.402       .  A
C389        O395   1.318       .  A
C390        C391   1.402       .  A
C390        H401   1.082       .  S
C391        C400   1.361       .  A
C391        C392   1.381       .  A
C392        C393   1.402       .  A
C392        O398   1.318       .  A
C393        C394   1.402       .  A
C393        H402   1.082       .  S
C394        C397   1.361       .  A
O395        C396   1.330       .  A
C396        C397   1.390       .  A
C397        H403   1.082       .  S
O398        C399   1.330       .  A
C399        C400   1.390       .  A
C400        H404   1.083       .  S
C405        C410   1.381       .  A
C405        C406   1.402       .  A
C405        O411   1.318       .  A
C406        C407   1.402       .  A
C406        H417   1.082       .  S
C407        C416   1.360       .  A
C407        C408   1.381       .  A
C408        C409   1.402       .  A
C408        O414   1.318       .  A
C409        C410   1.402       .  A
C409        H418   1.082       .  S
C410        C413   1.360       .  A
O411        C412   1.330       .  A
C412        C413   1.390       .  A
C413        H419   1.082       .  S
O414        C415   1.330       .  A
C415        C416   1.390       .  A
C416        H420   1.083       .  S
C421        C426   1.381       .  A
C421        C422   1.403       .  A
C421        O427   1.318       .  A
C422        C423   1.402       .  A
C422        H433   1.082       .  S
C423        C432   1.361       .  A
C423        C424   1.381       .  A
C424        C425   1.402       .  A
C424        O430   1.318       .  A
C425        C426   1.402       .  A
C425        H434   1.082       .  S
C426        C429   1.361       .  A
O427        C428   1.330       .  A
C428        C429   1.390       .  A
C429        H435   1.082       .  S
O430        C431   1.330       .  A
C431        C432   1.390       .  A
C432        H436   1.083       .  S
N437        N438   1.319       .  A
N437        N443   1.316       .  A
N437       Mn902   2.198   1_565  S
N438        C445   1.351       .  A
N439        N441   1.316       .  A
N439        N440   1.320       .  A
N440        C446   1.352       .  A
N441        N442   1.320       .  A
N441      Mn1338   2.200       .  S
N442        C446   1.352       .  A
N443        N444   1.321       .  A
N443       Mn673   2.202   1_565  S
N444        C445   1.352       .  A
C445        C601   1.465       .  S
C446        C614   1.466       .  S
N447        N453   1.316       .  A
N447        N448   1.321       .  A
N447      Mn1349   2.204       .  S
N448        C456   1.352       .  A
N449        N450   1.320       .  A
N449        N451   1.316       .  A
N449       Mn455   2.201   1_565  S
N450        C457   1.351       .  A
N451        N452   1.320       .  A
N451       Mn913   2.202   1_565  S
N452        C457   1.352       .  A
N453        N454   1.319       .  A
N454        C456   1.351       .  A
Mn455       N661   2.202   1_544  S
Mn455      Cl915   2.546   1_554  S
C456        C582   1.466       .  S
C457        C646   1.466       .  S
N458        N459   1.320       .  A
N458        N464   1.316       .  A
N458       Mn466   2.199       .  S
N459        C467   1.352       .  A
N460        N462   1.316       .  A
N460        N461   1.321       .  A
N461        C468   1.352       .  A
N462        N463   1.320       .  A
N463        C468   1.351       .  A
N464        N465   1.320       .  A
N464       Mn696   2.201       .  S
N465        C467   1.352       .  A
Mn466       N873   2.198   1_455  S
Mn466      N1313   2.200   1_455  S
Mn466      Cl697   2.546       .  S
C467        C550   1.465       .  S
C468        C630   1.465       .  S
N469        N470   1.321       .  A
N469        N475   1.316       .  A
N470        C480   1.352       .  A
N471        N472   1.320       .  A
N471        N473   1.316       .  A
N471       Mn478   2.199   1_554  S
N472        C481   1.351       .  A
N473        N474   1.321       .  A
N473       Mn477   2.204       .  S
N474        C481   1.352       .  A
N475        N476   1.320       .  A
N476        C480   1.352       .  A
Mn477      N1319   2.204   1_455  S
Mn477       N887   2.202   1_455  S
Mn477      Cl479   2.549   1_554  S
Mn478       N682   2.201       .  S
Mn478      Cl479   2.547       .  S
Cl479      Mn891   2.546   1_456  S
Cl479      Mn684   2.546       .  S
C480        C569   1.466       .  S
C481        C534   1.466       .  S
N482        N483   1.320       .  A
N482        N488   1.316       .  A
N482       Mn511   2.202       .  S
N483        C490   1.352       .  A
N484        N486   1.316       .  A
N484        N485   1.319       .  A
N484       Mn500   2.199       .  S
N485        C491   1.351       .  A
N486        N487   1.321       .  A
N486       Mn511   2.204       .  S
N487        C491   1.352       .  A
N488        N489   1.320       .  A
N488       Mn500   2.201       .  S
N489        C490   1.351       .  A
C490        C649   1.466       .  S
C491        C585   1.466       .  S
N492        N498   1.316       .  A
N492        N493   1.320       .  A
N492       Mn522   2.200       .  S
N493        C501   1.352       .  A
N494        N495   1.321       .  A
N494        N496   1.316       .  A
N494       Mn500   2.202       .  S
N495        C502   1.352       .  A
N496        N497   1.319       .  A
N496       Mn522   2.197       .  S
N497        C502   1.351       .  A
N498        N499   1.320       .  A
N498       Mn500   2.200       .  S
N499        C501   1.352       .  A
Mn500      Cl524   2.546       .  S
C501        C617   1.466       .  S
C502        C598   1.465       .  S
N503        N504   1.321       .  A
N503        N509   1.316       .  A
N503       Mn511   2.204       .  S
N504        C512   1.352       .  A
N505        N507   1.316       .  A
N505        N506   1.320       .  A
N505       Mn523   2.200       .  S
N506        C513   1.352       .  A
N507        N508   1.321       .  A
N507       Mn511   2.203       .  S
N508        C513   1.352       .  A
N509        N510   1.320       .  A
N509       Mn523   2.199       .  S
N510        C512   1.351       .  A
Mn511      Cl524   2.549       .  S
C512        C537   1.466       .  S
C513        C566   1.466       .  S
N514        N515   1.319       .  A
N514        N520   1.316       .  A
N514       Mn522   2.198       .  S
N515        C525   1.351       .  A
N516        N517   1.320       .  A
N516        N518   1.316       .  A
N516       Mn523   2.200       .  S
N517        C526   1.351       .  A
N518        N519   1.320       .  A
N518       Mn522   2.200       .  S
N519        C526   1.352       .  A
N520        N521   1.321       .  A
N520       Mn523   2.202       .  S
N521        C525   1.352       .  A
Mn522      Cl524   2.546       .  S
Mn523      Cl524   2.546       .  S
C525        C633   1.465       .  S
C526        C553   1.465       .  S
C527        C532   1.381       .  A
C527        C528   1.402       .  A
C527        O533   1.318       .  A
C528        C529   1.402       .  A
C528        H539   1.082       .  S
C529        C538   1.360       .  A
C529        C530   1.381       .  A
C530        C531   1.402       .  A
C530        O536   1.318       .  A
C531        C532   1.402       .  A
C531        H540   1.082       .  S
C532        C535   1.360       .  A
O533        C534   1.330       .  A
C534        C535   1.390       .  A
C535        H541   1.083       .  S
O536        C537   1.330       .  A
C537        C538   1.390       .  A
C538        H542   1.082       .  S
C543        C548   1.381       .  A
C543        C544   1.402       .  A
C543        O549   1.318       .  A
C544        C545   1.402       .  A
C544        H555   1.082       .  S
C545        C554   1.361       .  A
C545        C546   1.381       .  A
C546        C547   1.402       .  A
C546        O552   1.318       .  A
C547        C548   1.401       .  A
C547        H556   1.082       .  S
C548        C551   1.360       .  A
O549        C550   1.330       .  A
C550        C551   1.390       .  A
C551        H557   1.083       .  S
O552        C553   1.330       .  A
C553        C554   1.390       .  A
C554        H558   1.083       .  S
C559        C564   1.381       .  A
C559        C560   1.402       .  A
C559        O565   1.318       .  A
C560        C561   1.402       .  A
C560        H571   1.082       .  S
C561        C570   1.360       .  A
C561        C562   1.381       .  A
C562        C563   1.403       .  A
C562        O568   1.318       .  A
C563        C564   1.402       .  A
C563        H572   1.082       .  S
C564        C567   1.361       .  A
O565        C566   1.330       .  A
C566        C567   1.390       .  A
C567        H573   1.082       .  S
O568        C569   1.330       .  A
C569        C570   1.390       .  A
C570        H574   1.083       .  S
C575        C580   1.381       .  A
C575        C576   1.402       .  A
C575        O581   1.318       .  A
C576        C577   1.402       .  A
C576        H587   1.082       .  S
C577        C586   1.360       .  A
C577        C578   1.381       .  A
C578        C579   1.402       .  A
C578        O584   1.318       .  A
C579        C580   1.402       .  A
C579        H588   1.082       .  S
C580        C583   1.360       .  A
O581        C582   1.330       .  A
C582        C583   1.390       .  A
C583        H589   1.083       .  S
O584        C585   1.330       .  A
C585        C586   1.390       .  A
C586        H590   1.083       .  S
C591        C596   1.381       .  A
C591        C592   1.402       .  A
C591        O597   1.318       .  A
C592        C593   1.402       .  A
C592        H603   1.082       .  S
C593        C602   1.360       .  A
C593        C594   1.381       .  A
C594        C595   1.402       .  A
C594        O600   1.318       .  A
C595        C596   1.402       .  A
C595        H604   1.082       .  S
C596        C599   1.360       .  A
O597        C598   1.330       .  A
C598        C599   1.390       .  A
C599        H605   1.082       .  S
O600        C601   1.330       .  A
C601        C602   1.390       .  A
C602        H606   1.083       .  S
C607        C612   1.381       .  A
C607        C608   1.403       .  A
C607        O613   1.318       .  A
C608        C609   1.402       .  A
C608        H619   1.082       .  S
C609        C618   1.361       .  A
C609        C610   1.381       .  A
C610        C611   1.402       .  A
C610        O616   1.318       .  A
C611        C612   1.402       .  A
C611        H620   1.082       .  S
C612        C615   1.360       .  A
O613        C614   1.330       .  A
C614        C615   1.390       .  A
C615        H621   1.083       .  S
O616        C617   1.330       .  A
C617        C618   1.390       .  A
C618        H622   1.083       .  S
C623        C628   1.381       .  A
C623        C624   1.402       .  A
C623        O629   1.318       .  A
C624        C625   1.402       .  A
C624        H635   1.082       .  S
C625        C634   1.360       .  A
C625        C626   1.381       .  A
C626        C627   1.402       .  A
C626        O632   1.318       .  A
C627        C628   1.402       .  A
C627        H636   1.082       .  S
C628        C631   1.360       .  A
O629        C630   1.330       .  A
C630        C631   1.390       .  A
C631        H637   1.083       .  S
O632        C633   1.330       .  A
C633        C634   1.390       .  A
C634        H638   1.082       .  S
C639        C644   1.381       .  A
C639        C640   1.403       .  A
C639        O645   1.318       .  A
C640        C641   1.402       .  A
C640        H651   1.082       .  S
C641        C650   1.361       .  A
C641        C642   1.381       .  A
C642        C643   1.402       .  A
C642        O648   1.318       .  A
C643        C644   1.402       .  A
C643        H652   1.082       .  S
C644        C647   1.361       .  A
O645        C646   1.330       .  A
C646        C647   1.390       .  A
C647        H653   1.083       .  S
O648        C649   1.330       .  A
C649        C650   1.390       .  A
C650        H654   1.083       .  S
N655        N656   1.319       .  A
N655        N661   1.316       .  A
N655      Mn1120   2.198   1_565  S
N656        C663   1.351       .  A
N657        N659   1.316       .  A
N657        N658   1.320       .  A
N658        C664   1.352       .  A
N659        N660   1.320       .  A
N659      Mn1556   2.200       .  S
N660        C664   1.352       .  A
N661        N662   1.321       .  A
N662        C663   1.352       .  A
C663        C819   1.465       .  S
C664        C832   1.466       .  S
N665        N671   1.316       .  A
N665        N666   1.321       .  A
N665      Mn1567   2.204       .  S
N666        C674   1.352       .  A
N667        N668   1.320       .  A
N667        N669   1.316       .  A
N667       Mn673   2.201   1_565  S
N668        C675   1.351       .  A
N669        N670   1.320       .  A
N669      Mn1131   2.202   1_565  S
N670        C675   1.352       .  A
N671        N672   1.319       .  A
N672        C674   1.351       .  A
Mn673     Cl1133   2.546       .  S
C674        C800   1.466       .  S
C675        C864   1.466       .  S
N676        N677   1.320       .  A
N676        N682   1.316       .  A
N676       Mn684   2.199       .  S
N677        C685   1.352       .  A
N678        N680   1.316       .  A
N678        N679   1.321       .  A
N679        C686   1.352       .  A
N680        N681   1.319       .  A
N681        C686   1.351       .  A
N682        N683   1.320       .  A
N683        C685   1.352       .  A
Mn684      N1091   2.198   1_455  S
Mn684      N1531   2.200   1_455  S
C685        C768   1.465       .  S
C686        C848   1.465       .  S
N687        N688   1.321       .  A
N687        N693   1.316       .  A
N688        C698   1.352       .  A
N689        N690   1.320       .  A
N689        N691   1.316       .  A
N689       Mn696   2.199       .  S
N690        C699   1.351       .  A
N691        N692   1.321       .  A
N691       Mn695   2.204       .  S
N692        C699   1.352       .  A
N693        N694   1.320       .  A
N694        C698   1.352       .  A
Mn695      N1537   2.204   1_455  S
Mn695      N1105   2.202   1_455  S
Mn695      Cl697   2.549       .  S
Mn696      Cl697   2.547       .  S
Cl697     Mn1109   2.546   1_455  S
C698        C787   1.466       .  S
C699        C752   1.466       .  S
N700        N701   1.320       .  A
N700        N706   1.316       .  A
N700       Mn729   2.202       .  S
N701        C708   1.352       .  A
N702        N704   1.316       .  A
N702        N703   1.319       .  A
N702       Mn718   2.199       .  S
N703        C709   1.351       .  A
N704        N705   1.321       .  A
N704       Mn729   2.204       .  S
N705        C709   1.352       .  A
N706        N707   1.320       .  A
N706       Mn718   2.201       .  S
N707        C708   1.351       .  A
C708        C867   1.466       .  S
C709        C803   1.466       .  S
N710        N716   1.316       .  A
N710        N711   1.320       .  A
N710       Mn740   2.200       .  S
N711        C719   1.352       .  A
N712        N713   1.321       .  A
N712        N714   1.316       .  A
N712       Mn718   2.202       .  S
N713        C720   1.352       .  A
N714        N715   1.319       .  A
N714       Mn740   2.197       .  S
N715        C720   1.351       .  A
N716        N717   1.320       .  A
N716       Mn718   2.200       .  S
N717        C719   1.352       .  A
Mn718      Cl742   2.546       .  S
C719        C835   1.466       .  S
C720        C816   1.465       .  S
N721        N722   1.321       .  A
N721        N727   1.316       .  A
N721       Mn729   2.204       .  S
N722        C730   1.352       .  A
N723        N725   1.316       .  A
N723        N724   1.320       .  A
N723       Mn741   2.200       .  S
N724        C731   1.352       .  A
N725        N726   1.321       .  A
N725       Mn729   2.203       .  S
N726        C731   1.352       .  A
N727        N728   1.320       .  A
N727       Mn741   2.199       .  S
N728        C730   1.351       .  A
Mn729      Cl742   2.549       .  S
C730        C755   1.466       .  S
C731        C784   1.466       .  S
N732        N733   1.319       .  A
N732        N738   1.316       .  A
N732       Mn740   2.198       .  S
N733        C743   1.351       .  A
N734        N735   1.320       .  A
N734        N736   1.316       .  A
N734       Mn741   2.200       .  S
N735        C744   1.351       .  A
N736        N737   1.320       .  A
N736       Mn740   2.200       .  S
N737        C744   1.352       .  A
N738        N739   1.321       .  A
N738       Mn741   2.202       .  S
N739        C743   1.352       .  A
Mn740      Cl742   2.546       .  S
Mn741      Cl742   2.546       .  S
C743        C851   1.465       .  S
C744        C771   1.465       .  S
C745        C750   1.381       .  A
C745        C746   1.402       .  A
C745        O751   1.318       .  A
C746        C747   1.402       .  A
C746        H757   1.082       .  S
C747        C756   1.360       .  A
C747        C748   1.381       .  A
C748        C749   1.402       .  A
C748        O754   1.318       .  A
C749        C750   1.402       .  A
C749        H758   1.082       .  S
C750        C753   1.360       .  A
O751        C752   1.330       .  A
C752        C753   1.390       .  A
C753        H759   1.082       .  S
O754        C755   1.330       .  A
C755        C756   1.390       .  A
C756        H760   1.083       .  S
C761        C766   1.381       .  A
C761        C762   1.402       .  A
C761        O767   1.318       .  A
C762        C763   1.402       .  A
C762        H773   1.082       .  S
C763        C772   1.361       .  A
C763        C764   1.381       .  A
C764        C765   1.402       .  A
C764        O770   1.318       .  A
C765        C766   1.401       .  A
C765        H774   1.082       .  S
C766        C769   1.360       .  A
O767        C768   1.330       .  A
C768        C769   1.390       .  A
C769        H775   1.083       .  S
O770        C771   1.330       .  A
C771        C772   1.390       .  A
C772        H776   1.083       .  S
C777        C782   1.381       .  A
C777        C778   1.402       .  A
C777        O783   1.318       .  A
C778        C779   1.402       .  A
C778        H789   1.082       .  S
C779        C788   1.360       .  A
C779        C780   1.381       .  A
C780        C781   1.403       .  A
C780        O786   1.318       .  A
C781        C782   1.402       .  A
C781        H790   1.082       .  S
C782        C785   1.361       .  A
O783        C784   1.330       .  A
C784        C785   1.390       .  A
C785        H791   1.083       .  S
O786        C787   1.330       .  A
C787        C788   1.390       .  A
C788        H792   1.083       .  S
C793        C798   1.381       .  A
C793        C794   1.402       .  A
C793        O799   1.318       .  A
C794        C795   1.402       .  A
C794        H805   1.082       .  S
C795        C804   1.360       .  A
C795        C796   1.381       .  A
C796        C797   1.402       .  A
C796        O802   1.318       .  A
C797        C798   1.402       .  A
C797        H806   1.082       .  S
C798        C801   1.360       .  A
O799        C800   1.330       .  A
C800        C801   1.390       .  A
C801        H807   1.083       .  S
O802        C803   1.330       .  A
C803        C804   1.390       .  A
C804        H808   1.083       .  S
C809        C814   1.381       .  A
C809        C810   1.402       .  A
C809        O815   1.318       .  A
C810        C811   1.402       .  A
C810        H821   1.082       .  S
C811        C820   1.360       .  A
C811        C812   1.381       .  A
C812        C813   1.402       .  A
C812        O818   1.318       .  A
C813        C814   1.402       .  A
C813        H822   1.082       .  S
C814        C817   1.360       .  A
O815        C816   1.330       .  A
C816        C817   1.390       .  A
C817        H823   1.083       .  S
O818        C819   1.330       .  A
C819        C820   1.390       .  A
C820        H824   1.083       .  S
C825        C830   1.381       .  A
C825        C826   1.402       .  A
C825        O831   1.318       .  A
C826        C827   1.402       .  A
C826        H837   1.082       .  S
C827        C836   1.361       .  A
C827        C828   1.381       .  A
C828        C829   1.402       .  A
C828        O834   1.318       .  A
C829        C830   1.402       .  A
C829        H838   1.082       .  S
C830        C833   1.360       .  A
O831        C832   1.330       .  A
C832        C833   1.390       .  A
C833        H839   1.083       .  S
O834        C835   1.330       .  A
C835        C836   1.390       .  A
C836        H840   1.083       .  S
C841        C846   1.381       .  A
C841        C842   1.402       .  A
C841        O847   1.318       .  A
C842        C843   1.402       .  A
C842        H853   1.082       .  S
C843        C852   1.360       .  A
C843        C844   1.381       .  A
C844        C845   1.402       .  A
C844        O850   1.318       .  A
C845        C846   1.402       .  A
C845        H854   1.082       .  S
C846        C849   1.360       .  A
O847        C848   1.330       .  A
C848        C849   1.390       .  A
C849        H855   1.083       .  S
O850        C851   1.330       .  A
C851        C852   1.390       .  A
C852        H856   1.083       .  S
C857        C862   1.381       .  A
C857        C858   1.403       .  A
C857        O863   1.318       .  A
C858        C859   1.402       .  A
C858        H869   1.082       .  S
C859        C868   1.361       .  A
C859        C860   1.381       .  A
C860        C861   1.402       .  A
C860        O866   1.318       .  A
C861        C862   1.402       .  A
C861        H870   1.082       .  S
C862        C865   1.361       .  A
O863        C864   1.330       .  A
C864        C865   1.390       .  A
C865        H871   1.083       .  S
O866        C867   1.330       .  A
C867        C868   1.390       .  A
C868        H872   1.083       .  S
N873        N874   1.319       .  A
N873        N879   1.316       .  A
N874        C881   1.351       .  A
N875        N877   1.316       .  A
N875        N876   1.320       .  A
N875      Mn1545   2.200       .  S
N876        C882   1.352       .  A
N877        N878   1.320       .  A
N878        C882   1.352       .  A
N879        N880   1.321       .  A
N879      Mn1109   2.202       .  S
N880        C881   1.352       .  A
C881       C1037   1.465       .  S
C882       C1050   1.466       .  S
N883        N889   1.316       .  A
N883        N884   1.321       .  A
N884        C892   1.352       .  A
N885        N886   1.320       .  A
N885        N887   1.316       .  A
N885       Mn891   2.201       .  S
N886        C893   1.351       .  A
N887        N888   1.320       .  A
N888        C893   1.352       .  A
N889        N890   1.319       .  A
N889      Mn1327   2.199       .  S
N890        C892   1.351       .  A
Mn891      N1529   2.200   1_554  S
Mn891      N1097   2.202   1_554  S
Mn891      N1325   2.199       .  S
C892       C1018   1.466       .  S
C893       C1082   1.466       .  S
N894        N895   1.320       .  A
N894        N900   1.316       .  A
N894       Mn902   2.199       .  S
N895        C903   1.352       .  A
N896        N898   1.316       .  A
N896        N897   1.321       .  A
N896      Mn1568   2.202       .  S
N897        C904   1.352       .  A
N898        N899   1.320       .  A
N898      Mn1338   2.198       .  S
N899        C904   1.351       .  A
N900        N901   1.320       .  A
N900      Mn1132   2.201       .  S
N901        C903   1.352       .  A
Mn902      N1334   2.198   1_545  S
Mn902     Cl1133   2.546       .  S
C903        C986   1.465       .  S
C904       C1066   1.465       .  S
N905        N906   1.321       .  A
N905        N911   1.316       .  A
N905      Mn1349   2.203       .  S
N906        C916   1.352       .  A
N907        N908   1.320       .  A
N907        N909   1.316       .  A
N907       Mn914   2.199   1_554  S
N908        C917   1.351       .  A
N909        N910   1.321       .  A
N909       Mn913   2.204       .  S
N910        C917   1.352       .  A
N911        N912   1.320       .  A
N911      Mn1350   2.200   1_554  S
N912        C916   1.352       .  A
Mn913      N1341   2.203   1_545  S
Mn913      Cl915   2.549   1_554  S
Mn914      N1550   2.202   1_545  S
Mn914      N1118   2.201       .  S
Mn914      N1347   2.200   1_546  S
Mn914      Cl915   2.547       .  S
Cl915     Mn1120   2.546       .  S
C916       C1005   1.466       .  S
C917        C970   1.466       .  S
N918        N919   1.320       .  A
N918        N924   1.316       .  A
N918       Mn947   2.202       .  S
N919        C926   1.352       .  A
N920        N922   1.316       .  A
N920        N921   1.319       .  A
N920       Mn936   2.199       .  S
N921        C927   1.351       .  A
N922        N923   1.321       .  A
N922       Mn947   2.204       .  S
N923        C927   1.352       .  A
N924        N925   1.320       .  A
N924       Mn936   2.201       .  S
N925        C926   1.351       .  A
C926       C1085   1.466       .  S
C927       C1021   1.466       .  S
N928        N934   1.316       .  A
N928        N929   1.320       .  A
N928       Mn958   2.200       .  S
N929        C937   1.352       .  A
N930        N931   1.321       .  A
N930        N932   1.316       .  A
N930       Mn936   2.202       .  S
N931        C938   1.352       .  A
N932        N933   1.319       .  A
N932       Mn958   2.197       .  S
N933        C938   1.351       .  A
N934        N935   1.320       .  A
N934       Mn936   2.200       .  S
N935        C937   1.352       .  A
Mn936      Cl960   2.546       .  S
C937       C1053   1.466       .  S
C938       C1034   1.465       .  S
N939        N940   1.321       .  A
N939        N945   1.316       .  A
N939       Mn947   2.204       .  S
N940        C948   1.352       .  A
N941        N943   1.316       .  A
N941        N942   1.320       .  A
N941       Mn959   2.200       .  S
N942        C949   1.352       .  A
N943        N944   1.321       .  A
N943       Mn947   2.203       .  S
N944        C949   1.352       .  A
N945        N946   1.320       .  A
N945       Mn959   2.199       .  S
N946        C948   1.351       .  A
Mn947      Cl960   2.549       .  S
C948        C973   1.466       .  S
C949       C1002   1.466       .  S
N950        N951   1.319       .  A
N950        N956   1.316       .  A
N950       Mn958   2.198       .  S
N951        C961   1.351       .  A
N952        N953   1.320       .  A
N952        N954   1.316       .  A
N952       Mn959   2.200       .  S
N953        C962   1.351       .  A
N954        N955   1.320       .  A
N954       Mn958   2.200       .  S
N955        C962   1.352       .  A
N956        N957   1.321       .  A
N956       Mn959   2.202       .  S
N957        C961   1.352       .  A
Mn958      Cl960   2.546       .  S
Mn959      Cl960   2.546       .  S
C961       C1069   1.465       .  S
C962        C989   1.465       .  S
C963        C968   1.381       .  A
C963        C964   1.402       .  A
C963        O969   1.318       .  A
C964        C965   1.402       .  A
C964        H975   1.082       .  S
C965        C974   1.360       .  A
C965        C966   1.381       .  A
C966        C967   1.402       .  A
C966        O972   1.318       .  A
C967        C968   1.402       .  A
C967        H976   1.082       .  S
C968        C971   1.360       .  A
O969        C970   1.330       .  A
C970        C971   1.390       .  A
C971        H977   1.083       .  S
O972        C973   1.330       .  A
C973        C974   1.390       .  A
C974        H978   1.083       .  S
C979        C984   1.381       .  A
C979        C980   1.402       .  A
C979        O985   1.318       .  A
C980        C981   1.402       .  A
C980        H991   1.082       .  S
C981        C990   1.361       .  A
C981        C982   1.381       .  A
C982        C983   1.402       .  A
C982        O988   1.318       .  A
C983        C984   1.401       .  A
C983        H992   1.082       .  S
C984        C987   1.360       .  A
O985        C986   1.330       .  A
C986        C987   1.390       .  A
C987        H993   1.083       .  S
O988        C989   1.330       .  A
C989        C990   1.390       .  A
C990        H994   1.083       .  S
C995       C1000   1.381       .  A
C995        C996   1.402       .  A
C995       O1001   1.318       .  A
C996        C997   1.402       .  A
C996       H1007   1.082       .  S
C997       C1006   1.360       .  A
C997        C998   1.381       .  A
C998        C999   1.403       .  A
C998       O1004   1.318       .  A
C999       C1000   1.402       .  A
C999       H1008   1.082       .  S
C1000      C1003   1.361       .  A
O1001      C1002   1.330       .  A
C1002      C1003   1.390       .  A
C1003      H1009   1.082       .  S
O1004      C1005   1.330       .  A
C1005      C1006   1.390       .  A
C1006      H1010   1.083       .  S
C1011      C1016   1.381       .  A
C1011      C1012   1.402       .  A
C1011      O1017   1.318       .  A
C1012      C1013   1.402       .  A
C1012      H1023   1.082       .  S
C1013      C1022   1.360       .  A
C1013      C1014   1.381       .  A
C1014      C1015   1.402       .  A
C1014      O1020   1.318       .  A
C1015      C1016   1.402       .  A
C1015      H1024   1.082       .  S
C1016      C1019   1.360       .  A
O1017      C1018   1.330       .  A
C1018      C1019   1.390       .  A
C1019      H1025   1.083       .  S
O1020      C1021   1.330       .  A
C1021      C1022   1.390       .  A
C1022      H1026   1.083       .  S
C1027      C1032   1.381       .  A
C1027      C1028   1.402       .  A
C1027      O1033   1.318       .  A
C1028      C1029   1.402       .  A
C1028      H1039   1.082       .  S
C1029      C1038   1.360       .  A
C1029      C1030   1.381       .  A
C1030      C1031   1.402       .  A
C1030      O1036   1.318       .  A
C1031      C1032   1.402       .  A
C1031      H1040   1.082       .  S
C1032      C1035   1.360       .  A
O1033      C1034   1.330       .  A
C1034      C1035   1.390       .  A
C1035      H1041   1.083       .  S
O1036      C1037   1.330       .  A
C1037      C1038   1.390       .  A
C1038      H1042   1.082       .  S
C1043      C1048   1.381       .  A
C1043      C1044   1.403       .  A
C1043      O1049   1.318       .  A
C1044      C1045   1.402       .  A
C1044      H1055   1.082       .  S
C1045      C1054   1.361       .  A
C1045      C1046   1.381       .  A
C1046      C1047   1.402       .  A
C1046      O1052   1.318       .  A
C1047      C1048   1.402       .  A
C1047      H1056   1.082       .  S
C1048      C1051   1.360       .  A
O1049      C1050   1.330       .  A
C1050      C1051   1.390       .  A
C1051      H1057   1.083       .  S
O1052      C1053   1.330       .  A
C1053      C1054   1.390       .  A
C1054      H1058   1.082       .  S
C1059      C1064   1.381       .  A
C1059      C1060   1.402       .  A
C1059      O1065   1.318       .  A
C1060      C1061   1.402       .  A
C1060      H1071   1.082       .  S
C1061      C1070   1.360       .  A
C1061      C1062   1.381       .  A
C1062      C1063   1.402       .  A
C1062      O1068   1.318       .  A
C1063      C1064   1.402       .  A
C1063      H1072   1.082       .  S
C1064      C1067   1.360       .  A
O1065      C1066   1.330       .  A
C1066      C1067   1.390       .  A
C1067      H1073   1.083       .  S
O1068      C1069   1.330       .  A
C1069      C1070   1.390       .  A
C1070      H1074   1.083       .  S
C1075      C1080   1.381       .  A
C1075      C1076   1.403       .  A
C1075      O1081   1.318       .  A
C1076      C1077   1.402       .  A
C1076      H1087   1.082       .  S
C1077      C1086   1.361       .  A
C1077      C1078   1.381       .  A
C1078      C1079   1.402       .  A
C1078      O1084   1.318       .  A
C1079      C1080   1.402       .  A
C1079      H1088   1.082       .  S
C1080      C1083   1.361       .  A
O1081      C1082   1.330       .  A
C1082      C1083   1.390       .  A
C1083      H1089   1.083       .  S
O1084      C1085   1.330       .  A
C1085      C1086   1.390       .  A
C1086      H1090   1.083       .  S
N1091      N1092   1.319       .  A
N1091      N1097   1.316       .  A
N1092      C1099   1.351       .  A
N1093      N1095   1.316       .  A
N1093      N1094   1.320       .  A
N1093     Mn1327   2.200   1_556  S
N1094      C1100   1.352       .  A
N1095      N1096   1.320       .  A
N1096      C1100   1.352       .  A
N1097      N1098   1.321       .  A
N1098      C1099   1.352       .  A
C1099      C1255   1.465       .  S
C1100      C1268   1.466       .  S
N1101      N1107   1.316       .  A
N1101      N1102   1.321       .  A
N1102      C1110   1.352       .  A
N1103      N1104   1.320       .  A
N1103      N1105   1.316       .  A
N1103     Mn1109   2.201       .  S
N1104      C1111   1.351       .  A
N1105      N1106   1.320       .  A
N1106      C1111   1.352       .  A
N1107      N1108   1.319       .  A
N1107     Mn1545   2.199       .  S
N1108      C1110   1.351       .  A
Mn1109     N1311   2.200       .  S
Mn1109     N1543   2.199       .  S
C1110      C1236   1.466       .  S
C1111      C1300   1.466       .  S
N1112      N1113   1.320       .  A
N1112      N1118   1.316       .  A
N1112     Mn1120   2.199       .  S
N1113      C1121   1.352       .  A
N1114      N1116   1.316       .  A
N1114      N1115   1.321       .  A
N1114     Mn1350   2.202       .  S
N1115      C1122   1.352       .  A
N1116      N1117   1.319       .  A
N1116     Mn1556   2.198       .  S
N1117      C1122   1.351       .  A
N1118      N1119   1.320       .  A
N1119      C1121   1.352       .  A
Mn1120     N1552   2.198   1_545  S
C1121      C1204   1.465       .  S
C1122      C1284   1.465       .  S
N1123      N1124   1.321       .  A
N1123      N1129   1.316       .  A
N1123     Mn1567   2.203       .  S
N1124      C1134   1.352       .  A
N1125      N1126   1.320       .  A
N1125      N1127   1.316       .  A
N1125     Mn1132   2.199       .  S
N1126      C1135   1.351       .  A
N1127      N1128   1.321       .  A
N1127     Mn1131   2.204       .  S
N1128      C1135   1.352       .  A
N1129      N1130   1.320       .  A
N1129     Mn1568   2.200       .  S
N1130      C1134   1.352       .  A
Mn1131     N1559   2.203   1_545  S
Mn1131    Cl1133   2.549       .  S
Mn1132     N1332   2.202   1_545  S
Mn1132     N1565   2.200   1_545  S
Mn1132    Cl1133   2.547       .  S
C1134      C1223   1.466       .  S
C1135      C1188   1.466       .  S
N1136      N1137   1.320       .  A
N1136      N1142   1.316       .  A
N1136     Mn1165   2.202       .  S
N1137      C1144   1.352       .  A
N1138      N1140   1.316       .  A
N1138      N1139   1.319       .  A
N1138     Mn1154   2.199       .  S
N1139      C1145   1.351       .  A
N1140      N1141   1.321       .  A
N1140     Mn1165   2.204       .  S
N1141      C1145   1.352       .  A
N1142      N1143   1.320       .  A
N1142     Mn1154   2.201       .  S
N1143      C1144   1.351       .  A
C1144      C1303   1.466       .  S
C1145      C1239   1.466       .  S
N1146      N1152   1.316       .  A
N1146      N1147   1.320       .  A
N1146     Mn1176   2.200       .  S
N1147      C1155   1.352       .  A
N1148      N1149   1.321       .  A
N1148      N1150   1.316       .  A
N1148     Mn1154   2.202       .  S
N1149      C1156   1.352       .  A
N1150      N1151   1.319       .  A
N1150     Mn1176   2.197       .  S
N1151      C1156   1.351       .  A
N1152      N1153   1.320       .  A
N1152     Mn1154   2.200       .  S
N1153      C1155   1.352       .  A
Mn1154    Cl1178   2.546       .  S
C1155      C1271   1.466       .  S
C1156      C1252   1.465       .  S
N1157      N1158   1.321       .  A
N1157      N1163   1.316       .  A
N1157     Mn1165   2.204       .  S
N1158      C1166   1.352       .  A
N1159      N1161   1.316       .  A
N1159      N1160   1.320       .  A
N1159     Mn1177   2.200       .  S
N1160      C1167   1.352       .  A
N1161      N1162   1.321       .  A
N1161     Mn1165   2.203       .  S
N1162      C1167   1.352       .  A
N1163      N1164   1.320       .  A
N1163     Mn1177   2.199       .  S
N1164      C1166   1.351       .  A
Mn1165    Cl1178   2.549       .  S
C1166      C1191   1.466       .  S
C1167      C1220   1.466       .  S
N1168      N1169   1.319       .  A
N1168      N1174   1.316       .  A
N1168     Mn1176   2.198       .  S
N1169      C1179   1.351       .  A
N1170      N1171   1.320       .  A
N1170      N1172   1.316       .  A
N1170     Mn1177   2.200       .  S
N1171      C1180   1.351       .  A
N1172      N1173   1.320       .  A
N1172     Mn1176   2.200       .  S
N1173      C1180   1.352       .  A
N1174      N1175   1.321       .  A
N1174     Mn1177   2.202       .  S
N1175      C1179   1.352       .  A
Mn1176    Cl1178   2.546       .  S
Mn1177    Cl1178   2.546       .  S
C1179      C1287   1.465       .  S
C1180      C1207   1.465       .  S
C1181      C1186   1.381       .  A
C1181      C1182   1.402       .  A
C1181      O1187   1.318       .  A
C1182      C1183   1.402       .  A
C1182      H1193   1.082       .  S
C1183      C1192   1.360       .  A
C1183      C1184   1.381       .  A
C1184      C1185   1.402       .  A
C1184      O1190   1.318       .  A
C1185      C1186   1.402       .  A
C1185      H1194   1.082       .  S
C1186      C1189   1.360       .  A
O1187      C1188   1.330       .  A
C1188      C1189   1.390       .  A
C1189      H1195   1.083       .  S
O1190      C1191   1.330       .  A
C1191      C1192   1.390       .  A
C1192      H1196   1.083       .  S
C1197      C1202   1.381       .  A
C1197      C1198   1.402       .  A
C1197      O1203   1.318       .  A
C1198      C1199   1.402       .  A
C1198      H1209   1.082       .  S
C1199      C1208   1.361       .  A
C1199      C1200   1.381       .  A
C1200      C1201   1.402       .  A
C1200      O1206   1.318       .  A
C1201      C1202   1.401       .  A
C1201      H1210   1.082       .  S
C1202      C1205   1.360       .  A
O1203      C1204   1.330       .  A
C1204      C1205   1.390       .  A
C1205      H1211   1.082       .  S
O1206      C1207   1.330       .  A
C1207      C1208   1.390       .  A
C1208      H1212   1.083       .  S
C1213      C1218   1.381       .  A
C1213      C1214   1.402       .  A
C1213      O1219   1.318       .  A
C1214      C1215   1.402       .  A
C1214      H1225   1.082       .  S
C1215      C1224   1.360       .  A
C1215      C1216   1.381       .  A
C1216      C1217   1.403       .  A
C1216      O1222   1.318       .  A
C1217      C1218   1.402       .  A
C1217      H1226   1.082       .  S
C1218      C1221   1.361       .  A
O1219      C1220   1.330       .  A
C1220      C1221   1.390       .  A
C1221      H1227   1.083       .  S
O1222      C1223   1.330       .  A
C1223      C1224   1.390       .  A
C1224      H1228   1.083       .  S
C1229      C1234   1.381       .  A
C1229      C1230   1.402       .  A
C1229      O1235   1.318       .  A
C1230      C1231   1.402       .  A
C1230      H1241   1.082       .  S
C1231      C1240   1.360       .  A
C1231      C1232   1.381       .  A
C1232      C1233   1.402       .  A
C1232      O1238   1.318       .  A
C1233      C1234   1.402       .  A
C1233      H1242   1.082       .  S
C1234      C1237   1.360       .  A
O1235      C1236   1.330       .  A
C1236      C1237   1.390       .  A
C1237      H1243   1.083       .  S
O1238      C1239   1.330       .  A
C1239      C1240   1.390       .  A
C1240      H1244   1.083       .  S
C1245      C1250   1.381       .  A
C1245      C1246   1.402       .  A
C1245      O1251   1.318       .  A
C1246      C1247   1.402       .  A
C1246      H1257   1.082       .  S
C1247      C1256   1.360       .  A
C1247      C1248   1.381       .  A
C1248      C1249   1.402       .  A
C1248      O1254   1.318       .  A
C1249      C1250   1.402       .  A
C1249      H1258   1.082       .  S
C1250      C1253   1.360       .  A
O1251      C1252   1.330       .  A
C1252      C1253   1.390       .  A
C1253      H1259   1.083       .  S
O1254      C1255   1.330       .  A
C1255      C1256   1.390       .  A
C1256      H1260   1.083       .  S
C1261      C1266   1.381       .  A
C1261      C1262   1.402       .  A
C1261      O1267   1.318       .  A
C1262      C1263   1.402       .  A
C1262      H1273   1.082       .  S
C1263      C1272   1.361       .  A
C1263      C1264   1.381       .  A
C1264      C1265   1.402       .  A
C1264      O1270   1.318       .  A
C1265      C1266   1.402       .  A
C1265      H1274   1.082       .  S
C1266      C1269   1.361       .  A
O1267      C1268   1.330       .  A
C1268      C1269   1.390       .  A
C1269      H1275   1.082       .  S
O1270      C1271   1.330       .  A
C1271      C1272   1.390       .  A
C1272      H1276   1.083       .  S
C1277      C1282   1.381       .  A
C1277      C1278   1.402       .  A
C1277      O1283   1.318       .  A
C1278      C1279   1.402       .  A
C1278      H1289   1.082       .  S
C1279      C1288   1.360       .  A
C1279      C1280   1.381       .  A
C1280      C1281   1.402       .  A
C1280      O1286   1.318       .  A
C1281      C1282   1.402       .  A
C1281      H1290   1.082       .  S
C1282      C1285   1.360       .  A
O1283      C1284   1.330       .  A
C1284      C1285   1.390       .  A
C1285      H1291   1.082       .  S
O1286      C1287   1.330       .  A
C1287      C1288   1.390       .  A
C1288      H1292   1.083       .  S
C1293      C1298   1.381       .  A
C1293      C1294   1.403       .  A
C1293      O1299   1.318       .  A
C1294      C1295   1.402       .  A
C1294      H1305   1.082       .  S
C1295      C1304   1.361       .  A
C1295      C1296   1.381       .  A
C1296      C1297   1.402       .  A
C1296      O1302   1.318       .  A
C1297      C1298   1.402       .  A
C1297      H1306   1.082       .  S
C1298      C1301   1.361       .  A
O1299      C1300   1.330       .  A
C1300      C1301   1.390       .  A
C1301      H1307   1.082       .  S
O1302      C1303   1.330       .  A
C1303      C1304   1.390       .  A
C1304      H1308   1.082       .  S
N1309      N1310   1.319       .  A
N1309      N1315   1.316       .  A
N1310      C1317   1.351       .  A
N1311      N1313   1.316       .  A
N1311      N1312   1.320       .  A
N1312      C1318   1.352       .  A
N1313      N1314   1.320       .  A
N1314      C1318   1.352       .  A
N1315      N1316   1.321       .  A
N1315     Mn1545   2.202   1_565  S
N1316      C1317   1.352       .  A
C1317      C1473   1.465       .  S
C1318      C1486   1.466       .  S
N1319      N1325   1.316       .  A
N1319      N1320   1.321       .  A
N1320      C1328   1.352       .  A
N1321      N1322   1.320       .  A
N1321      N1323   1.316       .  A
N1321     Mn1327   2.201   1_565  S
N1322      C1329   1.351       .  A
N1323      N1324   1.320       .  A
N1324      C1329   1.352       .  A
N1325      N1326   1.319       .  A
N1326      C1328   1.351       .  A
Mn1327     N1533   2.202   1_544  S
C1328      C1454   1.466       .  S
C1329      C1518   1.466       .  S
N1330      N1331   1.320       .  A
N1330      N1336   1.316       .  A
N1330     Mn1338   2.199       .  S
N1331      C1339   1.352       .  A
N1332      N1334   1.316       .  A
N1332      N1333   1.321       .  A
N1333      C1340   1.352       .  A
N1334      N1335   1.320       .  A
N1335      C1340   1.351       .  A
N1336      N1337   1.320       .  A
N1336     Mn1568   2.201       .  S
N1337      C1339   1.352       .  A
Mn1338    Cl1569   2.546       .  S
C1339      C1422   1.465       .  S
C1340      C1502   1.465       .  S
N1341      N1342   1.321       .  A
N1341      N1347   1.316       .  A
N1342      C1352   1.352       .  A
N1343      N1344   1.320       .  A
N1343      N1345   1.316       .  A
N1343     Mn1350   2.199   1_554  S
N1344      C1353   1.351       .  A
N1345      N1346   1.321       .  A
N1345     Mn1349   2.204       .  S
N1346      C1353   1.352       .  A
N1347      N1348   1.320       .  A
N1348      C1352   1.352       .  A
Mn1349    Cl1351   2.549   1_554  S
Mn1350     N1554   2.201       .  S
Mn1350    Cl1351   2.547       .  S
Cl1351    Mn1556   2.546       .  S
C1352      C1441   1.466       .  S
C1353      C1406   1.466       .  S
N1354      N1355   1.320       .  A
N1354      N1360   1.316       .  A
N1354     Mn1383   2.202       .  S
N1355      C1362   1.352       .  A
N1356      N1358   1.316       .  A
N1356      N1357   1.319       .  A
N1356     Mn1372   2.199       .  S
N1357      C1363   1.351       .  A
N1358      N1359   1.321       .  A
N1358     Mn1383   2.204       .  S
N1359      C1363   1.352       .  A
N1360      N1361   1.320       .  A
N1360     Mn1372   2.201       .  S
N1361      C1362   1.351       .  A
C1362      C1521   1.466       .  S
C1363      C1457   1.466       .  S
N1364      N1370   1.316       .  A
N1364      N1365   1.320       .  A
N1364     Mn1394   2.200       .  S
N1365      C1373   1.352       .  A
N1366      N1367   1.321       .  A
N1366      N1368   1.316       .  A
N1366     Mn1372   2.202       .  S
N1367      C1374   1.352       .  A
N1368      N1369   1.319       .  A
N1368     Mn1394   2.197       .  S
N1369      C1374   1.351       .  A
N1370      N1371   1.320       .  A
N1370     Mn1372   2.200       .  S
N1371      C1373   1.352       .  A
Mn1372    Cl1396   2.546       .  S
C1373      C1489   1.466       .  S
C1374      C1470   1.465       .  S
N1375      N1376   1.321       .  A
N1375      N1381   1.316       .  A
N1375     Mn1383   2.204       .  S
N1376      C1384   1.352       .  A
N1377      N1379   1.316       .  A
N1377      N1378   1.320       .  A
N1377     Mn1395   2.200       .  S
N1378      C1385   1.352       .  A
N1379      N1380   1.321       .  A
N1379     Mn1383   2.203       .  S
N1380      C1385   1.352       .  A
N1381      N1382   1.320       .  A
N1381     Mn1395   2.199       .  S
N1382      C1384   1.351       .  A
Mn1383    Cl1396   2.549       .  S
C1384      C1409   1.466       .  S
C1385      C1438   1.466       .  S
N1386      N1387   1.319       .  A
N1386      N1392   1.316       .  A
N1386     Mn1394   2.198       .  S
N1387      C1397   1.351       .  A
N1388      N1389   1.320       .  A
N1388      N1390   1.316       .  A
N1388     Mn1395   2.200       .  S
N1389      C1398   1.351       .  A
N1390      N1391   1.320       .  A
N1390     Mn1394   2.200       .  S
N1391      C1398   1.352       .  A
N1392      N1393   1.321       .  A
N1392     Mn1395   2.202       .  S
N1393      C1397   1.352       .  A
Mn1394    Cl1396   2.546       .  S
Mn1395    Cl1396   2.546       .  S
C1397      C1505   1.465       .  S
C1398      C1425   1.465       .  S
C1399      C1404   1.381       .  A
C1399      C1400   1.402       .  A
C1399      O1405   1.318       .  A
C1400      C1401   1.402       .  A
C1400      H1411   1.082       .  S
C1401      C1410   1.360       .  A
C1401      C1402   1.381       .  A
C1402      C1403   1.402       .  A
C1402      O1408   1.318       .  A
C1403      C1404   1.402       .  A
C1403      H1412   1.082       .  S
C1404      C1407   1.360       .  A
O1405      C1406   1.330       .  A
C1406      C1407   1.390       .  A
C1407      H1413   1.083       .  S
O1408      C1409   1.330       .  A
C1409      C1410   1.390       .  A
C1410      H1414   1.083       .  S
C1415      C1420   1.381       .  A
C1415      C1416   1.402       .  A
C1415      O1421   1.318       .  A
C1416      C1417   1.402       .  A
C1416      H1427   1.082       .  S
C1417      C1426   1.361       .  A
C1417      C1418   1.381       .  A
C1418      C1419   1.402       .  A
C1418      O1424   1.318       .  A
C1419      C1420   1.401       .  A
C1419      H1428   1.082       .  S
C1420      C1423   1.360       .  A
O1421      C1422   1.330       .  A
C1422      C1423   1.390       .  A
C1423      H1429   1.083       .  S
O1424      C1425   1.330       .  A
C1425      C1426   1.390       .  A
C1426      H1430   1.083       .  S
C1431      C1436   1.381       .  A
C1431      C1432   1.402       .  A
C1431      O1437   1.318       .  A
C1432      C1433   1.402       .  A
C1432      H1443   1.082       .  S
C1433      C1442   1.360       .  A
C1433      C1434   1.381       .  A
C1434      C1435   1.403       .  A
C1434      O1440   1.318       .  A
C1435      C1436   1.402       .  A
C1435      H1444   1.082       .  S
C1436      C1439   1.361       .  A
O1437      C1438   1.330       .  A
C1438      C1439   1.390       .  A
C1439      H1445   1.083       .  S
O1440      C1441   1.330       .  A
C1441      C1442   1.390       .  A
C1442      H1446   1.083       .  S
C1447      C1452   1.381       .  A
C1447      C1448   1.402       .  A
C1447      O1453   1.318       .  A
C1448      C1449   1.402       .  A
C1448      H1459   1.082       .  S
C1449      C1458   1.360       .  A
C1449      C1450   1.381       .  A
C1450      C1451   1.402       .  A
C1450      O1456   1.318       .  A
C1451      C1452   1.402       .  A
C1451      H1460   1.082       .  S
C1452      C1455   1.360       .  A
O1453      C1454   1.330       .  A
C1454      C1455   1.390       .  A
C1455      H1461   1.083       .  S
O1456      C1457   1.330       .  A
C1457      C1458   1.390       .  A
C1458      H1462   1.083       .  S
C1463      C1468   1.381       .  A
C1463      C1464   1.402       .  A
C1463      O1469   1.318       .  A
C1464      C1465   1.402       .  A
C1464      H1475   1.082       .  S
C1465      C1474   1.360       .  A
C1465      C1466   1.381       .  A
C1466      C1467   1.402       .  A
C1466      O1472   1.318       .  A
C1467      C1468   1.402       .  A
C1467      H1476   1.082       .  S
C1468      C1471   1.360       .  A
O1469      C1470   1.330       .  A
C1470      C1471   1.390       .  A
C1471      H1477   1.083       .  S
O1472      C1473   1.330       .  A
C1473      C1474   1.390       .  A
C1474      H1478   1.082       .  S
C1479      C1484   1.381       .  A
C1479      C1480   1.402       .  A
C1479      O1485   1.318       .  A
C1480      C1481   1.402       .  A
C1480      H1491   1.082       .  S
C1481      C1490   1.361       .  A
C1481      C1482   1.381       .  A
C1482      C1483   1.402       .  A
C1482      O1488   1.318       .  A
C1483      C1484   1.402       .  A
C1483      H1492   1.082       .  S
C1484      C1487   1.361       .  A
O1485      C1486   1.330       .  A
C1486      C1487   1.390       .  A
C1487      H1493   1.082       .  S
O1488      C1489   1.330       .  A
C1489      C1490   1.390       .  A
C1490      H1494   1.082       .  S
C1495      C1500   1.381       .  A
C1495      C1496   1.402       .  A
C1495      O1501   1.318       .  A
C1496      C1497   1.402       .  A
C1496      H1507   1.082       .  S
C1497      C1506   1.360       .  A
C1497      C1498   1.381       .  A
C1498      C1499   1.402       .  A
C1498      O1504   1.318       .  A
C1499      C1500   1.402       .  A
C1499      H1508   1.082       .  S
C1500      C1503   1.360       .  A
O1501      C1502   1.330       .  A
C1502      C1503   1.390       .  A
C1503      H1509   1.083       .  S
O1504      C1505   1.330       .  A
C1505      C1506   1.390       .  A
C1506      H1510   1.083       .  S
C1511      C1516   1.381       .  A
C1511      C1512   1.403       .  A
C1511      O1517   1.318       .  A
C1512      C1513   1.402       .  A
C1512      H1523   1.082       .  S
C1513      C1522   1.361       .  A
C1513      C1514   1.381       .  A
C1514      C1515   1.402       .  A
C1514      O1520   1.318       .  A
C1515      C1516   1.402       .  A
C1515      H1524   1.082       .  S
C1516      C1519   1.361       .  A
O1517      C1518   1.330       .  A
C1518      C1519   1.390       .  A
C1519      H1525   1.083       .  S
O1520      C1521   1.330       .  A
C1521      C1522   1.390       .  A
C1522      H1526   1.082       .  S
N1527      N1528   1.319       .  A
N1527      N1533   1.316       .  A
N1528      C1535   1.351       .  A
N1529      N1531   1.316       .  A
N1529      N1530   1.320       .  A
N1530      C1536   1.352       .  A
N1531      N1532   1.320       .  A
N1532      C1536   1.352       .  A
N1533      N1534   1.321       .  A
N1534      C1535   1.352       .  A
C1535      C1691   1.465       .  S
C1536      C1704   1.466       .  S
N1537      N1543   1.316       .  A
N1537      N1538   1.321       .  A
N1538      C1546   1.352       .  A
N1539      N1540   1.320       .  A
N1539      N1541   1.316       .  A
N1539     Mn1545   2.201   1_565  S
N1540      C1547   1.351       .  A
N1541      N1542   1.320       .  A
N1542      C1547   1.352       .  A
N1543      N1544   1.319       .  A
N1544      C1546   1.351       .  A
C1546      C1672   1.466       .  S
C1547      C1736   1.466       .  S
N1548      N1549   1.320       .  A
N1548      N1554   1.316       .  A
N1548     Mn1556   2.199       .  S
N1549      C1557   1.352       .  A
N1550      N1552   1.316       .  A
N1550      N1551   1.321       .  A
N1551      C1558   1.352       .  A
N1552      N1553   1.320       .  A
N1553      C1558   1.351       .  A
N1554      N1555   1.320       .  A
N1555      C1557   1.352       .  A
C1557      C1640   1.465       .  S
C1558      C1720   1.465       .  S
N1559      N1560   1.321       .  A
N1559      N1565   1.316       .  A
N1560      C1570   1.352       .  A
N1561      N1562   1.320       .  A
N1561      N1563   1.316       .  A
N1561     Mn1568   2.199       .  S
N1562      C1571   1.351       .  A
N1563      N1564   1.321       .  A
N1563     Mn1567   2.204       .  S
N1564      C1571   1.352       .  A
N1565      N1566   1.320       .  A
N1566      C1570   1.352       .  A
Mn1567    Cl1569   2.549       .  S
Mn1568    Cl1569   2.547       .  S
C1570      C1659   1.466       .  S
C1571      C1624   1.466       .  S
N1572      N1573   1.320       .  A
N1572      N1578   1.316       .  A
N1572     Mn1601   2.202       .  S
N1573      C1580   1.352       .  A
N1574      N1576   1.316       .  A
N1574      N1575   1.319       .  A
N1574     Mn1590   2.199       .  S
N1575      C1581   1.351       .  A
N1576      N1577   1.321       .  A
N1576     Mn1601   2.204       .  S
N1577      C1581   1.352       .  A
N1578      N1579   1.320       .  A
N1578     Mn1590   2.201       .  S
N1579      C1580   1.351       .  A
C1580      C1739   1.466       .  S
C1581      C1675   1.466       .  S
N1582      N1588   1.316       .  A
N1582      N1583   1.320       .  A
N1582     Mn1612   2.200       .  S
N1583      C1591   1.352       .  A
N1584      N1585   1.321       .  A
N1584      N1586   1.316       .  A
N1584     Mn1590   2.202       .  S
N1585      C1592   1.352       .  A
N1586      N1587   1.319       .  A
N1586     Mn1612   2.197       .  S
N1587      C1592   1.351       .  A
N1588      N1589   1.320       .  A
N1588     Mn1590   2.200       .  S
N1589      C1591   1.352       .  A
Mn1590    Cl1614   2.546       .  S
C1591      C1707   1.466       .  S
C1592      C1688   1.465       .  S
N1593      N1594   1.321       .  A
N1593      N1599   1.316       .  A
N1593     Mn1601   2.204       .  S
N1594      C1602   1.352       .  A
N1595      N1597   1.316       .  A
N1595      N1596   1.320       .  A
N1595     Mn1613   2.200       .  S
N1596      C1603   1.352       .  A
N1597      N1598   1.321       .  A
N1597     Mn1601   2.203       .  S
N1598      C1603   1.352       .  A
N1599      N1600   1.320       .  A
N1599     Mn1613   2.199       .  S
N1600      C1602   1.351       .  A
Mn1601    Cl1614   2.549       .  S
C1602      C1627   1.466       .  S
C1603      C1656   1.466       .  S
N1604      N1605   1.319       .  A
N1604      N1610   1.316       .  A
N1604     Mn1612   2.198       .  S
N1605      C1615   1.351       .  A
N1606      N1607   1.320       .  A
N1606      N1608   1.316       .  A
N1606     Mn1613   2.200       .  S
N1607      C1616   1.351       .  A
N1608      N1609   1.320       .  A
N1608     Mn1612   2.200       .  S
N1609      C1616   1.352       .  A
N1610      N1611   1.321       .  A
N1610     Mn1613   2.202       .  S
N1611      C1615   1.352       .  A
Mn1612    Cl1614   2.546       .  S
Mn1613    Cl1614   2.546       .  S
C1615      C1723   1.465       .  S
C1616      C1643   1.465       .  S
C1617      C1622   1.381       .  A
C1617      C1618   1.402       .  A
C1617      O1623   1.318       .  A
C1618      C1619   1.402       .  A
C1618      H1629   1.082       .  S
C1619      C1628   1.360       .  A
C1619      C1620   1.381       .  A
C1620      C1621   1.402       .  A
C1620      O1626   1.318       .  A
C1621      C1622   1.402       .  A
C1621      H1630   1.082       .  S
C1622      C1625   1.360       .  A
O1623      C1624   1.330       .  A
C1624      C1625   1.390       .  A
C1625      H1631   1.082       .  S
O1626      C1627   1.330       .  A
C1627      C1628   1.390       .  A
C1628      H1632   1.083       .  S
C1633      C1638   1.381       .  A
C1633      C1634   1.402       .  A
C1633      O1639   1.318       .  A
C1634      C1635   1.402       .  A
C1634      H1645   1.082       .  S
C1635      C1644   1.361       .  A
C1635      C1636   1.381       .  A
C1636      C1637   1.402       .  A
C1636      O1642   1.318       .  A
C1637      C1638   1.401       .  A
C1637      H1646   1.082       .  S
C1638      C1641   1.360       .  A
O1639      C1640   1.330       .  A
C1640      C1641   1.390       .  A
C1641      H1647   1.083       .  S
O1642      C1643   1.330       .  A
C1643      C1644   1.390       .  A
C1644      H1648   1.083       .  S
C1649      C1654   1.381       .  A
C1649      C1650   1.402       .  A
C1649      O1655   1.318       .  A
C1650      C1651   1.402       .  A
C1650      H1661   1.082       .  S
C1651      C1660   1.360       .  A
C1651      C1652   1.381       .  A
C1652      C1653   1.403       .  A
C1652      O1658   1.318       .  A
C1653      C1654   1.402       .  A
C1653      H1662   1.082       .  S
C1654      C1657   1.361       .  A
O1655      C1656   1.330       .  A
C1656      C1657   1.390       .  A
C1657      H1663   1.082       .  S
O1658      C1659   1.330       .  A
C1659      C1660   1.390       .  A
C1660      H1664   1.083       .  S
C1665      C1670   1.381       .  A
C1665      C1666   1.402       .  A
C1665      O1671   1.318       .  A
C1666      C1667   1.402       .  A
C1666      H1677   1.082       .  S
C1667      C1676   1.360       .  A
C1667      C1668   1.381       .  A
C1668      C1669   1.402       .  A
C1668      O1674   1.318       .  A
C1669      C1670   1.402       .  A
C1669      H1678   1.082       .  S
C1670      C1673   1.360       .  A
O1671      C1672   1.330       .  A
C1672      C1673   1.390       .  A
C1673      H1679   1.083       .  S
O1674      C1675   1.330       .  A
C1675      C1676   1.390       .  A
C1676      H1680   1.083       .  S
C1681      C1686   1.381       .  A
C1681      C1682   1.402       .  A
C1681      O1687   1.318       .  A
C1682      C1683   1.402       .  A
C1682      H1693   1.082       .  S
C1683      C1692   1.360       .  A
C1683      C1684   1.381       .  A
C1684      C1685   1.402       .  A
C1684      O1690   1.318       .  A
C1685      C1686   1.402       .  A
C1685      H1694   1.082       .  S
C1686      C1689   1.360       .  A
O1687      C1688   1.330       .  A
C1688      C1689   1.390       .  A
C1689      H1695   1.082       .  S
O1690      C1691   1.330       .  A
C1691      C1692   1.390       .  A
C1692      H1696   1.083       .  S
C1697      C1702   1.381       .  A
C1697      C1698   1.403       .  A
C1697      O1703   1.318       .  A
C1698      C1699   1.402       .  A
C1698      H1709   1.082       .  S
C1699      C1708   1.361       .  A
C1699      C1700   1.381       .  A
C1700      C1701   1.402       .  A
C1700      O1706   1.318       .  A
C1701      C1702   1.402       .  A
C1701      H1710   1.082       .  S
C1702      C1705   1.360       .  A
O1703      C1704   1.330       .  A
C1704      C1705   1.390       .  A
C1705      H1711   1.083       .  S
O1706      C1707   1.330       .  A
C1707      C1708   1.390       .  A
C1708      H1712   1.083       .  S
C1713      C1718   1.381       .  A
C1713      C1714   1.402       .  A
C1713      O1719   1.318       .  A
C1714      C1715   1.402       .  A
C1714      H1725   1.082       .  S
C1715      C1724   1.360       .  A
C1715      C1716   1.381       .  A
C1716      C1717   1.402       .  A
C1716      O1722   1.318       .  A
C1717      C1718   1.402       .  A
C1717      H1726   1.082       .  S
C1718      C1721   1.360       .  A
O1719      C1720   1.330       .  A
C1720      C1721   1.390       .  A
C1721      H1727   1.082       .  S
O1722      C1723   1.330       .  A
C1723      C1724   1.390       .  A
C1724      H1728   1.082       .  S
C1729      C1734   1.381       .  A
C1729      C1730   1.403       .  A
C1729      O1735   1.318       .  A
C1730      C1731   1.402       .  A
C1730      H1741   1.082       .  S
C1731      C1740   1.361       .  A
C1731      C1732   1.381       .  A
C1732      C1733   1.402       .  A
C1732      O1738   1.318       .  A
C1733      C1734   1.402       .  A
C1733      H1742   1.082       .  S
C1734      C1737   1.361       .  A
O1735      C1736   1.330       .  A
C1736      C1737   1.390       .  A
C1737      H1743   1.083       .  S
O1738      C1739   1.330       .  A
C1739      C1740   1.390       .  A
C1740      H1744   1.083       .  S
