geometry optimzed in LAMMPS
_audit_creation_date              2020-11-30 
_audit_creation_method            'lammps2cif' 
_symmetry_space_group_name_H-M    'P1' 
_symmetry_Int_Tables_number       1 
_symmetry_cell_setting            triclinic 
loop_ 
_symmetry_equiv_pos_as_xyz 
  x,y,z 
_cell_length_a                    30.86240649 
_cell_length_b                    30.977381363838937 
_cell_length_c                    25.39776539072333 
_cell_angle_alpha                 90.3235753726194 
_cell_angle_beta                  90.64858625216402 
_cell_angle_gamma                 86.93112035753177 
loop_ 
_atom_site_label 
_atom_site_type_symbol 
_atom_site_fract_x 
_atom_site_fract_y 
_atom_site_fract_z 
_atom_site_charge 
O1          O  0.39817339  0.47362374  0.04415587    -0.80900
O2          O  0.05681851  0.04720982  0.07720945    -0.80900
O3          O  0.04094873  0.41149935  0.02692979    -0.80900
O4          O  0.45984022  0.09184789  0.02558615    -0.80900
O5          O  0.05133054  0.46312392  0.08153944    -0.81000
O6          O  0.45280229  0.03540078  0.07668357    -0.80900
O7          O  0.04735607  0.09889487  0.01998541    -0.80900
O8          O  0.46101760  0.43672192  0.05327492    -0.80900
C9          C  0.42011242  0.44171609  0.06389193     1.08800
C10         C  0.06255088  0.08522651  0.06419435     1.08700
C11         C  0.05779277  0.42415221  0.06934237     1.08800
C12         C  0.44597925  0.07547942  0.06797933     1.08700
O13         O  0.40861753  0.04241267  0.47692043    -0.80900
O14         O  0.09305825  0.45657692  0.47394472    -0.81000
O15         O  0.47268249  0.39759580  0.45990209    -0.80900
O16         O  0.04516246  0.05251534  0.42053836    -0.80900
O17         O  0.09829763  0.04622207  0.47667092    -0.81000
O18         O  0.43563076  0.46002319  0.44864216    -0.80900
O19         O  0.45929766  0.04945995  0.42133899    -0.80900
O20         O  0.03502974  0.44649034  0.42453269    -0.80900
Co21       Co  0.44859075  0.49715189  0.01595650     1.51500
Co22       Co  0.07168995  0.00322746  0.52705869     1.51700
Co23       Co  0.49738949  0.44739994  0.98556518     1.51600
Co24       Co  0.50162751  0.07122642  0.47116372     1.51500
O25         O  0.51048494  0.50944599  0.99957813    -1.42800
C26         C  0.42082764  0.05808152  0.43406045     1.08700
C27         C  0.07549293  0.44014227  0.43322930     1.08800
C28         C  0.44078065  0.41898960  0.43916335     1.08700
C29         C  0.08295638  0.06076150  0.43290033     1.08700
O30         O  0.31730553  0.29653661  0.30214487    -0.80900
O31         O  0.15680045  0.20454555  0.27094408    -0.80900
O32         O  0.21785238  0.30296692  0.32611668    -0.80900
O33         O  0.29336838  0.20579498  0.33064023    -0.80900
O34         O  0.16103420  0.29318166  0.27451862    -0.81000
O35         O  0.34519849  0.21467138  0.27705635    -0.80900
O36         O  0.20871201  0.20017365  0.32886322    -0.80900
O37         O  0.27851719  0.35787395  0.29111865    -0.80900
C38         C  0.31119354  0.33751834  0.31136359     1.08800
C39         C  0.17123556  0.19128853  0.31565668     1.08700
C40         C  0.17745170  0.30867494  0.31656263     1.08800
C41         C  0.33246360  0.19889356  0.31964538     1.08700
O42         O  0.30621483  0.21786698  0.17529885    -0.80900
O43         O  0.20222777  0.29009516  0.17061323    -0.81000
O44         O  0.29350927  0.31801460  0.19806288    -0.80900
O45         O  0.21169652  0.15377695  0.22765594    -0.80900
O46         O  0.20107919  0.20489618  0.16952353    -0.81000
O47         O  0.35715621  0.28307601  0.20945829    -0.80900
O48         O  0.30007149  0.16197820  0.22741440    -0.80900
O49         O  0.21056647  0.34140025  0.22618068    -0.80900
Co50       Co  0.30703044  0.25789039  0.23584104     1.51500
Co51       Co  0.18356759  0.24824632  0.22178124     1.51700
Co52       Co  0.25655259  0.30585947  0.26491705     1.51600
Co53       Co  0.25331882  0.18344157  0.27835997     1.51500
O54         O  0.24523654  0.24364438  0.24969858    -1.42800
C55         C  0.31473843  0.17823826  0.18542992     1.08700
C56         C  0.19433322  0.32868778  0.18348694     1.08800
C57         C  0.33467273  0.31410481  0.18853843     1.08700
C58         C  0.19722010  0.16649696  0.18267830     1.08700
C59         C  0.13501172  0.11962964  0.17757922    -0.22500
C60         C  0.16685109  0.14120003  0.15078599    -0.07600
C61         C  0.16304903  0.14577318  0.09529911     0.13200
C62         C  0.12711125  0.12957834  0.06857241    -0.21100
C63         C  0.09485220  0.10864635  0.09554335    -0.07600
C64         C  0.09920253  0.10331417  0.15090154     0.13200
C65         C  0.06561694  0.08153539  0.18265933    -0.24500
H66         H  0.13718525  0.11705427  0.22005839     0.14500
H67         H  0.12487674  0.13215757  0.02609031     0.14500
C68         C  0.19726042  0.16673576  0.06369663    -0.24400
H69         H  0.07205146  0.08421578  0.22564270     0.04700
H70         H  0.06584481  0.04656234  0.17299694     0.08000
H71         H  0.03293221  0.09691680  0.17445480     0.08000
H72         H  0.22960580  0.15065812  0.07212808     0.08000
H73         H  0.19787100  0.20166248  0.07322851     0.08000
H74         H  0.19085066  0.16408316  0.02072938     0.04700
C75         C  0.14712614  0.10382199  0.41620935    -0.21100
C76         C  0.10527803  0.09331494  0.40104740    -0.07600
C77         C  0.08415990  0.11743570  0.35930274     0.13200
C78         C  0.10617672  0.14960561  0.33344309    -0.21100
C79         C  0.14821518  0.15977574  0.34829594    -0.07600
C80         C  0.16876955  0.13660848  0.39112490     0.13200
C81         C  0.21384544  0.14508164  0.41100603    -0.24500
H82         H  0.16309278  0.08638663  0.44852251     0.14500
H83         H  0.09025714  0.16706345  0.30110293     0.14500
C84         C  0.03802422  0.11095891  0.34178369    -0.24400
H85         H  0.22368992  0.12440274  0.44512207     0.04700
H86         H  0.21519625  0.17923139  0.42421180     0.08000
H87         H  0.23785749  0.13770938  0.37959450     0.08000
H88         H  0.01556190  0.11839378  0.37486486     0.08000
H89         H  0.03487311  0.07730114  0.32762600     0.08000
H90         H  0.02761203  0.13271834  0.30887743     0.04700
C91         C  0.11151753  0.41749078  0.14200213    -0.21100
C92         C  0.09029381  0.39734771  0.09982163    -0.07600
C93         C  0.10435324  0.35486808  0.08489492     0.13200
C94         C  0.13911705  0.33423474  0.11226442    -0.21100
C95         C  0.16077380  0.35471014  0.15384967    -0.07600
C96         C  0.14691236  0.39726404  0.16852068     0.13200
C97         C  0.16946672  0.42240497  0.21089033    -0.24500
H98         H  0.10122971  0.45010762  0.15362038     0.14500
H99         H  0.14930120  0.30150557  0.10090500     0.14500
C100        C  0.08350372  0.33075077  0.04033288    -0.24400
H101        H  0.15533897  0.45599743  0.21467055     0.04700
H102        H  0.20430164  0.42434259  0.20120190     0.08000
H103        H  0.16630438  0.40682939  0.24970567     0.08000
H104        H  0.08632126  0.34444804  0.50496593     0.08000
H105        H  0.04833229  0.32846263  0.04782347     0.08000
H106        H  0.09792923  0.29730743  0.03596524     0.04700
C107        C  0.39936828  0.14261131  0.08204508    -0.21100
C108        C  0.41546345  0.10242230  0.10189114    -0.07600
C109        C  0.39793596  0.08758776  0.14951318     0.13200
C110        C  0.36413269  0.11226058  0.17402667    -0.21100
C111        C  0.34735049  0.15203059  0.15345232    -0.07600
C112        C  0.36552207  0.16718570  0.10638294     0.13200
C113        C  0.34921936  0.20866470  0.08023500    -0.24500
H114        H  0.41223204  0.15445584  0.04569893     0.14500
H115        H  0.35135403  0.10055733  0.21052870     0.14500
C116        C  0.41480689  0.04634900  0.17577574    -0.24400
H117        H  0.36519749  0.21356076  0.04191294     0.04700
H118        H  0.35620953  0.23679275  0.10558354     0.08000
H119        H  0.31379189  0.20788244  0.07240346     0.08000
H120        H  0.45041319  0.04713776  0.18226394     0.08000
H121        H  0.40722199  0.01795119  0.15120828     0.08000
H122        H  0.39971683  0.04194603  0.21475554     0.04700
C123        C  0.38575277  0.34077304  0.34694554    -0.21100
C124        C  0.34324947  0.35954352  0.34450197    -0.07600
C125        C  0.33354802  0.39862024  0.37206725     0.13200
C126        C  0.36637116  0.41712035  0.40196433    -0.21100
C127        C  0.40874993  0.39798224  0.40492550    -0.07600
C128        C  0.41859567  0.35937601  0.37652652     0.13200
C129        C  0.46364289  0.33794329  0.37585260    -0.24500
H130        H  0.39363020  0.31137017  0.32491404     0.14500
H131        H  0.35859113  0.44660934  0.42389004     0.14500
C132        C  0.28876763  0.42068103  0.37132920    -0.24400
H133        H  0.46578803  0.30974312  0.34861659     0.04700
H134        H  0.47288748  0.32594153  0.41570148     0.08000
H135        H  0.48722347  0.36127820  0.36255463     0.08000
H136        H  0.26464188  0.39802558  0.38504491     0.08000
H137        H  0.28019680  0.43180038  0.33088479     0.08000
H138        H  0.28675791  0.44955686  0.39750143     0.04700
C139        C  0.41501494  0.10904055  0.35924425    -0.21100
C140        C  0.39565282  0.09251997  0.40443410    -0.07600
C141        C  0.35678993  0.11322740  0.42296430     0.13200
C142        C  0.33917191  0.14979253  0.39640957    -0.21100
C143        C  0.35832774  0.16596761  0.35085454    -0.07600
C144        C  0.39756239  0.14571141  0.33290883     0.13200
C145        C  0.42178791  0.16233566  0.28660090    -0.24500
H146        H  0.44467336  0.09340326  0.34442613     0.14500
H147        H  0.30928955  0.16528512  0.41088486     0.14500
C148        C  0.33285260  0.09686779  0.46965138    -0.24400
H149        H  0.45261504  0.14314458  0.27957349     0.04700
H150        H  0.42988538  0.19634486  0.29402171     0.08000
H151        H  0.40197172  0.16044505  0.25020647     0.08000
H152        H  0.35334217  0.09765315  0.50555035     0.08000
H153        H  0.32366870  0.06323891  0.46199500     0.08000
H154        H  0.30271496  0.11688356  0.47777067     0.04700
C155        C  0.13530594  0.38324137  0.42746105    -0.21100
C156        C  0.10159701  0.40760163  0.40156564    -0.07600
C157        C  0.09210930  0.39774832  0.34839008     0.13200
C158        C  0.11636054  0.36416609  0.32292353    -0.21100
C159        C  0.15029009  0.34002079  0.34869783    -0.07600
C160        C  0.15929889  0.34941028  0.40213526     0.13200
C161        C  0.19290013  0.32305908  0.43351251    -0.24500
H162        H  0.14235362  0.38996423  0.46841025     0.14500
H163        H  0.10941707  0.35758456  0.28190048     0.14500
C164        C  0.05763842  0.42330982  0.31744515    -0.24400
H165        H  0.19288463  0.33256953  0.47574951     0.04700
H166        H  0.22582618  0.32785030  0.41830518     0.08000
H167        H  0.18595821  0.28827166  0.43112370     0.08000
H168        H  0.06403207  0.45824569  0.31912129     0.08000
H169        H  0.02510084  0.41811942  0.33364618     0.08000
H170        H  0.05706203  0.41337620  0.27536530     0.04700
C171        C  0.35428221  0.40447380  0.09023817    -0.21100
C172        C  0.39890990  0.40978587  0.09761593    -0.07600
C173        C  0.42218829  0.38262157  0.13414718     0.13200
C174        C  0.40026714  0.35143941  0.16195349    -0.21100
C175        C  0.35564106  0.34613518  0.15467354    -0.07600
C176        C  0.33237028  0.37314950  0.11791904     0.13200
C177        C  0.28472301  0.36889690  0.10640556    -0.24500
H178        H  0.33639654  0.42454028  0.06170921     0.14500
H179        H  0.41821866  0.33137858  0.19040271     0.14500
C180        C  0.46994600  0.38650465  0.14523822    -0.24400
H181        H  0.27292275  0.39034389  0.07377738     0.04700
H182        H  0.26541554  0.37826052  0.14161377     0.08000
H183        H  0.27875229  0.33511700  0.09468184     0.08000
H184        H  0.47629757  0.42026102  0.15666768     0.08000
H185        H  0.48896478  0.37678049  0.10992803     0.08000
H186        H  0.48175077  0.36510678  0.17790432     0.04700
O187        O  0.39789745  0.47379230  0.54304089    -0.80900
O188        O  0.05656307  0.04707105  0.57958649    -0.80900
O189        O  0.04259528  0.41103760  0.52605228    -0.80900
O190        O  0.45729832  0.09362457  0.52450955    -0.80900
O191        O  0.05360548  0.46375814  0.57862152    -0.81000
O192        O  0.45028829  0.03779517  0.57675654    -0.80900
O193        O  0.04579631  0.09844073  0.52196302    -0.80900
O194        O  0.46095045  0.43791616  0.55327680    -0.80900
C195        C  0.42010690  0.44263850  0.56405052     1.08800
C196        C  0.06130940  0.08525427  0.56625125     1.08700
C197        C  0.05973197  0.42452564  0.56783386     1.08800
C198        C  0.44357294  0.07781579  0.56727265     1.08700
O199        O  0.41012258  0.04186001  0.97730985    -0.80900
O200        O  0.09112971  0.45824812  0.97699931    -0.81000
O201        O  0.47350796  0.39608196  0.96068786    -0.80900
O202        O  0.04546912  0.05323393  0.91846935    -0.80900
O203        O  0.09884397  0.04640263  0.97428026    -0.81000
O204        O  0.43581369  0.45839550  0.95028986    -0.80900
O205        O  0.46036965  0.04942947  0.92133964    -0.80900
O206        O  0.03369824  0.44942941  0.92635516    -0.80900
Co207      Co  0.44817187  0.49785417  0.51485309     1.51500
Co208      Co  0.07215512  0.00358435  0.02465531     1.51700
Co209      Co  0.49708590  0.44858578  0.48534951     1.51600
Co210      Co  0.50345215  0.06988427  0.97116492     1.51500
O211        O  0.51000427  0.51065400  0.49891871    -1.42800
C212        C  0.42200781  0.05798727  0.93454793     1.08700
C213        C  0.07404866  0.44280720  0.93533798     1.08800
C214        C  0.44084854  0.41722180  0.94146513     1.08700
C215        C  0.08345334  0.06100467  0.93057900     1.08700
O216        O  0.31647317  0.29720047  0.80557646    -0.80900
O217        O  0.15585119  0.20781943  0.77286273    -0.80900
O218        O  0.21740185  0.30467147  0.82783692    -0.80900
O219        O  0.29314994  0.20598802  0.83213055    -0.80900
O220        O  0.16083472  0.29649699  0.77578366    -0.81000
O221        O  0.34484945  0.21517853  0.77850296    -0.80900
O222        O  0.20813493  0.20260805  0.83032424    -0.80900
O223        O  0.27832950  0.35893869  0.79348768    -0.80900
C224        C  0.31050397  0.33826074  0.81439696     1.08800
C225        C  0.17063304  0.19386419  0.81709910     1.08700
C226        C  0.17727718  0.31181518  0.81791474     1.08800
C227        C  0.33219670  0.19893174  0.82084929     1.08700
O228        O  0.30599759  0.22009236  0.67711352    -0.80900
O229        O  0.20302217  0.29185996  0.67229307    -0.81000
O230        O  0.29358197  0.31938467  0.70069602    -0.80900
O231        O  0.20977988  0.15582325  0.72957034    -0.80900
O232        O  0.19941506  0.20685308  0.67132634    -0.81000
O233        O  0.35720961  0.28504290  0.71281805    -0.80900
O234        O  0.29843564  0.16345767  0.72799003    -0.80900
O235        O  0.21113240  0.34333694  0.72759458    -0.80900
Co236      Co  0.30679851  0.25931808  0.73842346     1.51500
Co237      Co  0.18305078  0.25081164  0.72348011     1.51700
Co238      Co  0.25635683  0.30728517  0.76699108     1.51600
Co239      Co  0.25228614  0.18494775  0.77972884     1.51500
O240        O  0.24475409  0.24523432  0.75135897    -1.42800
C241        C  0.31341259  0.18012613  0.68636506     1.08700
C242        C  0.19534822  0.33055832  0.68468777     1.08800
C243        C  0.33484088  0.31625367  0.69207790     1.08700
C244        C  0.19502785  0.16857921  0.68476608     1.08700
C245        C  0.13179398  0.12266548  0.68001730    -0.22500
C246        C  0.16427762  0.14334219  0.65318508    -0.07600
C247        C  0.16120007  0.14678826  0.59755365     0.13200
C248        C  0.12560696  0.13005500  0.57060253    -0.21100
C249        C  0.09287149  0.10977336  0.59752348    -0.07600
C250        C  0.09621203  0.10597929  0.65311405     0.13200
C251        C  0.06166563  0.08557640  0.68472427    -0.24500
H252        H  0.13334168  0.12103184  0.72260378     0.14500
H253        H  0.12406850  0.13160295  0.52800964     0.14500
C254        C  0.19595193  0.16698270  0.56608040    -0.24400
H255        H  0.06770066  0.08880059  0.72769437     0.04700
H256        H  0.06108301  0.05052131  0.67587782     0.08000
H257        H  0.02943539  0.10161261  0.67557385     0.08000
H258        H  0.22807160  0.15071469  0.57528004     0.08000
H259        H  0.19680410  0.20199867  0.57498942     0.08000
H260        H  0.18991824  0.16386612  0.52311274     0.04700
C261        C  0.14793023  0.10343409  0.91390738    -0.21100
C262        C  0.10589952  0.09343858  0.89887718    -0.07600
C263        C  0.08475609  0.11791574  0.85749307     0.13200
C264        C  0.10627385  0.15115233  0.83323156    -0.21100
C265        C  0.14826578  0.16118237  0.84836946    -0.07600
C266        C  0.16955928  0.13646168  0.88940549     0.13200
C267        C  0.21550558  0.14321057  0.90757232    -0.24500
H268        H  0.16412329  0.08525127  0.94545977     0.14500
H269        H  0.09008982  0.16938214  0.80168525     0.14500
C270        C  0.03920162  0.11049113  0.83847771    -0.24400
H271        H  0.22607167  0.12098602  0.93995895     0.04700
H272        H  0.21811457  0.17668269  0.92268211     0.08000
H273        H  0.23827090  0.13669179  0.87457897     0.08000
H274        H  0.01591266  0.11744149  0.87079130     0.08000
H275        H  0.03710570  0.07671982  0.82419260     0.08000
H276        H  0.02902392  0.13206543  0.80528652     0.04700
C277        C  0.11334554  0.41917518  0.64072637    -0.21100
C278        C  0.09200651  0.39826352  0.59919938    -0.07600
C279        C  0.10547252  0.35528665  0.58594469     0.13200
C280        C  0.14063721  0.33536226  0.61316831    -0.21100
C281        C  0.16223164  0.35643123  0.65433678    -0.07600
C282        C  0.14820709  0.39907509  0.66836176     0.13200
C283        C  0.16949486  0.42411138  0.71183490    -0.24500
H284        H  0.10318490  0.45206096  0.65139272     0.14500
H285        H  0.15068722  0.30241735  0.60260573     0.14500
C286        C  0.08296628  0.32954984  0.54412810    -0.24400
H287        H  0.15516152  0.45765351  0.71528726     0.04700
H288        H  0.20457991  0.42624325  0.70377241     0.08000
H289        H  0.16510677  0.40826296  0.75031015     0.08000
H290        H  0.08822635  0.34747700  0.00250347     0.08000
H291        H  0.04808398  0.32796773  0.55371962     0.08000
H292        H  0.09697865  0.29583640  0.54123094     0.04700
C293        C  0.39355335  0.14306028  0.57875923    -0.21100
C294        C  0.41335523  0.10521636  0.60096178    -0.07600
C295        C  0.39990515  0.09262439  0.65152458     0.13200
C296        C  0.36601064  0.11664526  0.67661802    -0.21100
C297        C  0.34552349  0.15393063  0.65388230    -0.07600
C298        C  0.35961359  0.16704612  0.60379588     0.13200
C299        C  0.33829926  0.20523800  0.57514595    -0.24500
H300        H  0.40340429  0.15319889  0.54010935     0.14500
H301        H  0.35625383  0.10662091  0.71536020     0.14500
C302        C  0.42162922  0.05476587  0.68038780    -0.24400
H303        H  0.35095117  0.20819202  0.53461981     0.04700
H304        H  0.34471849  0.23571412  0.59628358     0.08000
H305        H  0.30278825  0.20141597  0.57180119     0.08000
H306        H  0.45720517  0.05846823  0.68258688     0.08000
H307        H  0.41470447  0.02403179  0.66016131     0.08000
H308        H  0.40975267  0.05247198  0.72135867     0.04700
C309        C  0.36246265  0.33633433  0.88911845    -0.21100
C310        C  0.34155878  0.36019256  0.84851465    -0.07600
C311        C  0.35399746  0.40261874  0.83812692     0.13200
C312        C  0.38718079  0.41979715  0.86850359    -0.21100
C313        C  0.40842624  0.39578087  0.90873390    -0.07600
C314        C  0.39548653  0.35361528  0.91968535     0.13200
C315        C  0.41507041  0.32712115  0.96450182    -0.24500
H316        H  0.35283902  0.30384371  0.89701455     0.14500
H317        H  0.39683115  0.45226982  0.86054667     0.14500
C318        C  0.33372302  0.42953892  0.79407553    -0.24400
H319        H  0.39927180  0.29595041  0.96880322     0.04700
H320        H  0.41102223  0.34527500  0.00210936     0.08000
H321        H  0.45004618  0.31946866  0.95736353     0.08000
H322        H  0.29870678  0.43652103  0.80173980     0.08000
H323        H  0.33777066  0.41207181  0.75599519     0.08000
H324        H  0.34896168  0.46105374  0.79037406     0.04700
C325        C  0.41530632  0.10906337  0.85969177    -0.21100
C326        C  0.39642453  0.09243628  0.90515727    -0.07600
C327        C  0.35771031  0.11314753  0.92417112     0.13200
C328        C  0.33943735  0.14938564  0.89740334    -0.21100
C329        C  0.35828268  0.16582747  0.85179117    -0.07600
C330        C  0.39775599  0.14601096  0.83388124     0.13200
C331        C  0.42253909  0.16386579  0.78877791    -0.24500
H332        H  0.44493492  0.09357734  0.84457161     0.14500
H333        H  0.30953491  0.16465512  0.91205689     0.14500
C334        C  0.33488318  0.09740549  0.97201675    -0.24400
H335        H  0.45338056  0.14478194  0.78148741     0.04700
H336        H  0.43064549  0.19760401  0.79790163     0.08000
H337        H  0.40323063  0.16326770  0.75193737     0.08000
H338        H  0.35617433  0.09914024  0.00719878     0.08000
H339        H  0.32587991  0.06355037  0.96562534     0.08000
H340        H  0.30473003  0.11729208  0.98048274     0.04700
C341        C  0.13848422  0.39158875  0.92584312    -0.21100
C342        C  0.10065133  0.41113888  0.90269821    -0.07600
C343        C  0.08787372  0.39686521  0.85202704     0.13200
C344        C  0.11294413  0.36377874  0.82659974    -0.21100
C345        C  0.15061378  0.34396019  0.84999067    -0.07600
C346        C  0.16330053  0.35827777  0.90069297     0.13200
C347        C  0.20224774  0.33821139  0.92962860    -0.24500
H348        H  0.14832760  0.40157656  0.96491412     0.14500
H349        H  0.10321759  0.35385271  0.78746775     0.14500
C350        C  0.04840529  0.41652730  0.82372890    -0.24400
H351        H  0.20509861  0.35115925  0.97033055     0.04700
H352        H  0.23249601  0.34531246  0.90891589     0.08000
H353        H  0.19939319  0.30271821  0.93250335     0.08000
H354        H  0.05071532  0.45209778  0.82096171     0.08000
H355        H  0.01849684  0.40897699  0.84491003     0.08000
H356        H  0.04532371  0.40360748  0.78305152     0.04700
C357        C  0.35387994  0.40999843  0.59788782    -0.21100
C358        C  0.39928658  0.41158462  0.59974223    -0.07600
C359        C  0.42312791  0.38192393  0.63301595     0.13200
C360        C  0.40108037  0.35118049  0.66157707    -0.21100
C361        C  0.35572310  0.34896822  0.65877837    -0.07600
C362        C  0.33179021  0.37961454  0.62687109     0.13200
C363        C  0.28296943  0.38088982  0.62233377    -0.24500
H364        H  0.33527972  0.43245979  0.57274652     0.14500
H365        H  0.41965458  0.32880889  0.68686516     0.14500
C366        C  0.47172244  0.38238850  0.63967338    -0.24400
H367        H  0.27020921  0.40577817  0.59402169     0.04700
H368        H  0.26850384  0.38919222  0.66110312     0.08000
H369        H  0.27220727  0.34914944  0.60830740     0.08000
H370        H  0.48099042  0.41506400  0.65222921     0.08000
H371        H  0.48774734  0.37303497  0.60216874     0.08000
H372        H  0.48423823  0.35905956  0.67000478     0.04700
O373        O  0.39849469  0.97259577  0.04350505    -0.80900
O374        O  0.05480642  0.54841541  0.08147882    -0.80900
O375        O  0.04294427  0.91107314  0.02236052    -0.80900
O376        O  0.45913123  0.59268593  0.02376990    -0.80900
O377        O  0.05323168  0.96271713  0.07676188    -0.81000
O378        O  0.45222155  0.53712051  0.07640839    -0.80900
O379        O  0.04426013  0.59910444  0.02271966    -0.80900
O380        O  0.46173515  0.93698377  0.05305927    -0.80900
C381        C  0.42081595  0.94094719  0.06326890     1.08800
C382        C  0.05922778  0.58656723  0.06750347     1.08700
C383        C  0.05982880  0.92379031  0.06472769     1.08800
C384        C  0.44506902  0.57698936  0.06645805     1.08700
O385        O  0.40978523  0.54292979  0.47624114    -0.80900
O386        O  0.09201175  0.95746154  0.47444508    -0.81000
O387        O  0.47220755  0.89722336  0.46176997    -0.80900
O388        O  0.04656608  0.55113289  0.41710940    -0.80900
O389        O  0.09948144  0.54544504  0.47369787    -0.81000
O390        O  0.43441780  0.95923087  0.45007462    -0.80900
O391        O  0.46026706  0.54958774  0.42045372    -0.80900
O392        O  0.03412449  0.94840180  0.42485739    -0.80900
Co393      Co  0.44855711  0.99660449  0.01521486     1.51500
Co394      Co  0.07264393  0.50350684  0.52515920     1.51700
Co395      Co  0.49691768  0.94728541  0.98474422     1.51600
Co396      Co  0.50250678  0.57107848  0.47045835     1.51500
O397        O  0.51037193  0.00922911  0.99861546    -1.42800
C398        C  0.42198015  0.55876093  0.43341455     1.08700
C399        C  0.07450071  0.94168604  0.43328659     1.08800
C400        C  0.43978013  0.91800937  0.44160256     1.08700
C401        C  0.08423228  0.55974560  0.42975175     1.08700
O402        O  0.31824546  0.79625424  0.30161058    -0.80900
O403        O  0.15644026  0.70710106  0.27219591    -0.80900
O404        O  0.21847270  0.80413617  0.32558590    -0.80900
O405        O  0.29387101  0.70591820  0.32937317    -0.80900
O406        O  0.16155062  0.79566170  0.27417203    -0.81000
O407        O  0.34518956  0.71401598  0.27489195    -0.80900
O408        O  0.20900932  0.70158531  0.32929047    -0.80900
O409        O  0.27990073  0.85801103  0.29061966    -0.80900
C410        C  0.31239456  0.83729365  0.31082444     1.08800
C411        C  0.17125567  0.69328310  0.31652825     1.08700
C412        C  0.17825670  0.81108789  0.31605878     1.08800
C413        C  0.33283356  0.69872598  0.31787379     1.08700
O414        O  0.30517835  0.71833641  0.17386139    -0.80900
O415        O  0.20262500  0.79093246  0.17025434    -0.81000
O416        O  0.29390562  0.81785289  0.19780620    -0.80900
O417        O  0.20969049  0.65501440  0.22844962    -0.80900
O418        O  0.20009203  0.70602295  0.17020170    -0.81000
O419        O  0.35729008  0.78245867  0.20829497    -0.80900
O420        O  0.29837959  0.66229373  0.22575326    -0.80900
O421        O  0.21161222  0.84258429  0.22515246    -0.80900
Co422      Co  0.30702854  0.75790208  0.23493543     1.51500
Co423      Co  0.18339875  0.74994245  0.22204528     1.51700
Co424      Co  0.25710987  0.80642551  0.26450890     1.51600
Co425      Co  0.25269531  0.68418306  0.27791783     1.51500
O426        O  0.24510590  0.74445605  0.24941100    -1.42800
C427        C  0.31283407  0.67848984  0.18357440     1.08700
C428        C  0.19530633  0.82973354  0.18248555     1.08800
C429        C  0.33495607  0.81394009  0.18816848     1.08700
C430        C  0.19486710  0.66799746  0.18377102     1.08700
C431        C  0.12954060  0.62505693  0.18032304    -0.22500
C432        C  0.16287266  0.64389959  0.15287916    -0.07600
C433        C  0.15950614  0.64722876  0.09723611     0.13200
C434        C  0.12355584  0.63088916  0.07079504    -0.21100
C435        C  0.09043547  0.61173134  0.09823576    -0.07600
C436        C  0.09322617  0.60940857  0.15391849     0.13200
C437        C  0.05724679  0.59194400  0.18594070    -0.24500
H438        H  0.13102013  0.62416342  0.22301649     0.14500
H439        H  0.12203989  0.63180012  0.02810898     0.14500
C440        C  0.19417199  0.66702075  0.06518429    -0.24400
H441        H  0.06330313  0.59577890  0.22884860     0.04700
H442        H  0.05441146  0.55697425  0.17811620     0.08000
H443        H  0.02602524  0.60972043  0.17606575     0.08000
H444        H  0.22625907  0.65066971  0.07422637     0.08000
H445        H  0.19521312  0.70209164  0.07377343     0.08000
H446        H  0.18789519  0.66366337  0.02225338     0.04700
C447        C  0.14823636  0.60306901  0.41369460    -0.21100
C448        C  0.10613066  0.59317251  0.39887888    -0.07600
C449        C  0.08435757  0.61884174  0.35897854     0.13200
C450        C  0.10607566  0.65181957  0.33429423    -0.21100
C451        C  0.14845752  0.66124745  0.34859759    -0.07600
C452        C  0.16959470  0.63662932  0.38984935     0.13200
C453        C  0.21499934  0.64430006  0.40924507    -0.24500
H454        H  0.16466325  0.58447680  0.44475984     0.14500
H455        H  0.08967198  0.67045219  0.30322549     0.14500
C456        C  0.03783264  0.61320595  0.34239891    -0.24400
H457        H  0.22522819  0.62257245  0.44226571     0.04700
H458        H  0.21671492  0.67802612  0.42388323     0.08000
H459        H  0.23853582  0.63776762  0.37710895     0.08000
H460        H  0.01608890  0.61922890  0.37649932     0.08000
H461        H  0.03427000  0.58018592  0.32630923     0.08000
H462        H  0.02676368  0.63637644  0.31119689     0.04700
C463        C  0.11069661  0.91677277  0.14030792    -0.21100
C464        C  0.09221886  0.89726314  0.09572442    -0.07600
C465        C  0.10885645  0.85600919  0.07937163     0.13200
C466        C  0.14360524  0.83607582  0.10751101    -0.21100
C467        C  0.16235576  0.85580276  0.15179902    -0.07600
C468        C  0.14568231  0.89704555  0.16814025     0.13200
C469        C  0.16427562  0.92102075  0.21434351    -0.24500
H470        H  0.09825865  0.94842224  0.15318884     0.14500
H471        H  0.15593710  0.80434145  0.09478127     0.14500
C472        C  0.09073444  0.83249692  0.03252810    -0.24400
H473        H  0.14791125  0.95353464  0.21976142     0.04700
H474        H  0.19924693  0.92563151  0.20794918     0.08000
H475        H  0.16000201  0.90285636  0.25122948     0.08000
H476        H  0.09474588  0.85157440  0.49727782     0.08000
H477        H  0.05564872  0.82797515  0.03818996     0.08000
H478        H  0.10708528  0.79998925  0.02695888     0.04700
C479        C  0.39233636  0.64043655  0.07561563    -0.21100
C480        C  0.41376208  0.60400142  0.09920446    -0.07600
C481        C  0.40096309  0.59216870  0.15033683     0.13200
C482        C  0.36662920  0.61587608  0.17503409    -0.21100
C483        C  0.34492093  0.65206045  0.15123775    -0.07600
C484        C  0.35788965  0.66404728  0.10023430     0.13200
C485        C  0.33490647  0.70063151  0.07031667    -0.24500
H486        H  0.40146960  0.64978173  0.03638192     0.14500
H487        H  0.35757031  0.60660267  0.21432019     0.14500
C488        C  0.42393536  0.55557959  0.18027342    -0.24400
H489        H  0.34683198  0.70269198  0.02933562     0.04700
H490        H  0.34055513  0.73198556  0.08982504     0.08000
H491        H  0.29957697  0.69555336  0.06809783     0.08000
H492        H  0.45929957  0.56047488  0.18218654     0.08000
H493        H  0.41803872  0.52417654  0.16103470     0.08000
H494        H  0.41222230  0.55373483  0.22136357     0.04700
C495        C  0.36298415  0.83615386  0.38734071    -0.21100
C496        C  0.34361488  0.85920031  0.34503008    -0.07600
C497        C  0.35716821  0.90107621  0.33368102     0.13200
C498        C  0.38902598  0.91899816  0.36557459    -0.21100
C499        C  0.40835714  0.89601066  0.40787667    -0.07600
C500        C  0.39502388  0.85401136  0.41911649     0.13200
C501        C  0.41316450  0.82835246  0.46544127    -0.24500
H502        H  0.35279605  0.80394163  0.39574084     0.14500
H503        H  0.39929348  0.95115280  0.35705321     0.14500
C504        C  0.33968002  0.92644041  0.28682463    -0.24400
H505        H  0.39726646  0.79723675  0.46972469     0.04700
H506        H  0.40789209  0.84715613  0.50237197     0.08000
H507        H  0.44837661  0.82065061  0.46016147     0.08000
H508        H  0.30443975  0.93432616  0.29143056     0.08000
H509        H  0.34532632  0.90731589  0.25020255     0.08000
H510        H  0.35577967  0.95743567  0.28245632     0.04700
C511        C  0.41665743  0.61057309  0.35911538    -0.21100
C512        C  0.39716327  0.59378484  0.40412417    -0.07600
C513        C  0.35828785  0.61451766  0.42260363     0.13200
C514        C  0.34001093  0.65034512  0.39519808    -0.21100
C515        C  0.35909100  0.66647290  0.34960185    -0.07600
C516        C  0.39902318  0.64713314  0.33260662     0.13200
C517        C  0.42390840  0.66488571  0.28749780    -0.24500
H518        H  0.44656962  0.59521099  0.34454333     0.14500
H519        H  0.30987350  0.66552104  0.40935439     0.14500
C520        C  0.33542563  0.59939523  0.47073616    -0.24400
H521        H  0.45526851  0.64644220  0.28126175     0.04700
H522        H  0.43103328  0.69902291  0.29587391     0.08000
H523        H  0.40512928  0.66309740  0.25032145     0.08000
H524        H  0.35660558  0.60212922  0.50594582     0.08000
H525        H  0.32677513  0.56533377  0.46523419     0.08000
H526        H  0.30501214  0.61910086  0.47849809     0.04700
C527        C  0.14131021  0.89421292  0.42099582    -0.21100
C528        C  0.10081079  0.90981763  0.40056450    -0.07600
C529        C  0.08550573  0.89134096  0.35312028     0.13200
C530        C  0.11105446  0.85856899  0.32787419    -0.21100
C531        C  0.15152111  0.84287793  0.34847434    -0.07600
C532        C  0.16649944  0.86101148  0.39626265     0.13200
C533        C  0.20857392  0.84552699  0.42251180    -0.24500
H534        H  0.15316497  0.90729057  0.45766723     0.14500
H535        H  0.09930971  0.84552421  0.29112152     0.14500
C536        C  0.04254782  0.90571479  0.32818049    -0.24400
H537        H  0.21322912  0.86121490  0.46144389     0.04700
H538        H  0.23648344  0.85341641  0.39782242     0.08000
H539        H  0.20871233  0.81010474  0.42909514     0.08000
H540        H  0.04136013  0.94111887  0.32124152     0.08000
H541        H  0.01549967  0.89734220  0.35401899     0.08000
H542        H  0.03735114  0.88959775  0.28962242     0.04700
C543        C  0.35476176  0.91175680  0.10159590    -0.21100
C544        C  0.40012627  0.90867297  0.09702757    -0.07600
C545        C  0.42359235  0.87327780  0.12144920     0.13200
C546        C  0.40112257  0.84302020  0.14992987    -0.21100
C547        C  0.35575546  0.84611617  0.15445368    -0.07600
C548        C  0.33223438  0.88116234  0.12943419     0.13200
C549        C  0.28341519  0.88711511  0.13110102    -0.24500
H550        H  0.33641872  0.93818041  0.08253280     0.14500
H551        H  0.41945471  0.81659364  0.16900984     0.14500
C552        C  0.47221246  0.86626531  0.11784023    -0.24400
H553        H  0.27092205  0.91532957  0.10759168     0.04700
H554        H  0.27279308  0.89296041  0.17222983     0.08000
H555        H  0.26852012  0.85809673  0.11448600     0.08000
H556        H  0.48823487  0.89467265  0.13430993     0.08000
H557        H  0.48148503  0.86075223  0.07617243     0.08000
H558        H  0.48469237  0.83746183  0.14031160     0.04700
O559        O  0.39690097  0.97360144  0.54418437    -0.80900
O560        O  0.05729212  0.54829943  0.57642457    -0.80900
O561        O  0.04212102  0.91058971  0.52525666    -0.80900
O562        O  0.45830005  0.59294410  0.52429704    -0.80900
O563        O  0.05297808  0.96233887  0.57937284    -0.81000
O564        O  0.45230963  0.53671372  0.57598349    -0.80900
O565        O  0.04771320  0.59877685  0.51740592    -0.80900
O566        O  0.46035458  0.93842189  0.55408639    -0.80900
C567        C  0.41931251  0.94191499  0.56379164     1.08800
C568        C  0.06218166  0.58628137  0.56240291     1.08700
C569        C  0.05927127  0.92335177  0.56735804     1.08800
C570        C  0.44481393  0.57661134  0.56691009     1.08700
O571        O  0.41060140  0.54159304  0.97618024    -0.80900
O572        O  0.09247231  0.95793534  0.97189277    -0.81000
O573        O  0.47259653  0.89607350  0.96039932    -0.80900
O574        O  0.04461416  0.55215696  0.92202745    -0.80900
O575        O  0.09724770  0.54676467  0.97898084    -0.81000
O576        O  0.43542298  0.95846891  0.94902572    -0.80900
O577        O  0.46120203  0.54863744  0.92040700    -0.80900
O578        O  0.03475164  0.94941110  0.92190935    -0.80900
Co579      Co  0.44693187  0.99798550  0.51602828     1.51500
Co580      Co  0.07031180  0.50410335  0.02938849     1.51700
Co581      Co  0.49581387  0.94890991  0.48601088     1.51600
Co582      Co  0.50362053  0.56973318  0.97070179     1.51500
O583        O  0.50878047  0.01091494  0.49984535    -1.42800
C584        C  0.42262758  0.55687579  0.93298095     1.08700
C585        C  0.07502968  0.94215981  0.93068524     1.08800
C586        C  0.44026534  0.91721073  0.94045940     1.08700
C587        C  0.08236091  0.56050006  0.93464244     1.08700
O588        O  0.31742296  0.79559428  0.80275082    -0.80900
O589        O  0.15689263  0.70437735  0.77288304    -0.80900
O590        O  0.21938353  0.80316197  0.82584779    -0.80900
O591        O  0.29416615  0.70423229  0.82934482    -0.80900
O592        O  0.16184068  0.79325353  0.77584493    -0.81000
O593        O  0.34557970  0.71336158  0.77542509    -0.80900
O594        O  0.20961055  0.69829603  0.82972438    -0.80900
O595        O  0.28000897  0.85730225  0.78891329    -0.80900
C596        C  0.31201925  0.83684650  0.81046298     1.08800
C597        C  0.17186065  0.69003161  0.81692574     1.08700
C598        C  0.17896759  0.80941683  0.81706075     1.08800
C599        C  0.33305257  0.69689313  0.81768806     1.08700
O600        O  0.30519545  0.71882237  0.67446822    -0.80900
O601        O  0.20162016  0.78942450  0.67118581    -0.81000
O602        O  0.29302633  0.81633768  0.69639971    -0.80900
O603        O  0.21051079  0.65310332  0.72798744    -0.80900
O604        O  0.20005174  0.70468088  0.67060890    -0.81000
O605        O  0.35694524  0.78299164  0.70959751    -0.80900
O606        O  0.29893584  0.66205403  0.72512936    -0.80900
O607        O  0.21111841  0.84105715  0.72587496    -0.80900
Co608      Co  0.30691474  0.75751866  0.73607354     1.51500
Co609      Co  0.18331697  0.74799091  0.72308251     1.51700
Co610      Co  0.25717628  0.80525660  0.76399166     1.51600
Co611      Co  0.25324658  0.68243683  0.77774582     1.51500
O612        O  0.24507570  0.74300581  0.75008979    -1.42800
C613        C  0.31343075  0.67902909  0.68348211     1.08700
C614        C  0.19446921  0.82822502  0.68353101     1.08800
C615        C  0.33423804  0.81336475  0.68767922     1.08700
C616        C  0.19558424  0.66637204  0.68348456     1.08700
C617        C  0.13001089  0.62397876  0.67769879    -0.22500
C618        C  0.16446524  0.64207415  0.65157965    -0.07600
C619        C  0.16275974  0.64519878  0.59586160     0.13200
C620        C  0.12722002  0.62949528  0.56794645    -0.21100
C621        C  0.09292551  0.61117946  0.59406914    -0.07600
C622        C  0.09412987  0.60893558  0.64983022     0.13200
C623        C  0.05690883  0.59214561  0.68034101    -0.24500
H624        H  0.13025087  0.62330692  0.72040511     0.14500
H625        H  0.12691044  0.63025229  0.52527117     0.14500
C626        C  0.19876450  0.66425494  0.56537933    -0.24400
H627        H  0.06165110  0.59622508  0.72345879     0.04700
H628        H  0.05387234  0.55717213  0.67267503     0.08000
H629        H  0.02619521  0.61018522  0.66890156     0.08000
H630        H  0.23030122  0.64731572  0.57573843     0.08000
H631        H  0.20027334  0.69926324  0.57407733     0.08000
H632        H  0.19359521  0.66101234  0.52226933     0.04700
C633        C  0.14761512  0.60155402  0.91638757    -0.21100
C634        C  0.10522854  0.59222385  0.90216078    -0.07600
C635        C  0.08427525  0.61659616  0.86054614     0.13200
C636        C  0.10656165  0.64860719  0.83473389    -0.21100
C637        C  0.14893724  0.65803546  0.84907350    -0.07600
C638        C  0.16978437  0.63376145  0.89085646     0.13200
C639        C  0.21570724  0.64037371  0.90909631    -0.24500
H640        H  0.16362315  0.58357910  0.94827307     0.14500
H641        H  0.09054395  0.66657824  0.80284126     0.14500
C642        C  0.03802634  0.61054395  0.84315532    -0.24400
H643        H  0.22575700  0.61878559  0.94230780     0.04700
H644        H  0.21858879  0.67410581  0.92316160     0.08000
H645        H  0.23860881  0.63289010  0.87649983     0.08000
H646        H  0.01566365  0.61812611  0.87628399     0.08000
H647        H  0.03457544  0.57692726  0.82896759     0.08000
H648        H  0.02772439  0.63240958  0.81031246     0.04700
C649        C  0.10990508  0.91557263  0.64292834    -0.21100
C650        C  0.09166757  0.89661315  0.59788748    -0.07600
C651        C  0.10850873  0.85565979  0.58063095     0.13200
C652        C  0.14335396  0.83553776  0.60829940    -0.21100
C653        C  0.16168667  0.85460512  0.65322096    -0.07600
C654        C  0.14470356  0.89545632  0.67061643     0.13200
C655        C  0.16253540  0.91847334  0.71804255    -0.24500
H656        H  0.09724937  0.94696510  0.65645392     0.14500
H657        H  0.15597324  0.80411168  0.59485418     0.14500
C658        C  0.09041349  0.83254619  0.53345541    -0.24400
H659        H  0.14581317  0.95069925  0.72438555     0.04700
H660        H  0.19752829  0.92356731  0.71254191     0.08000
H661        H  0.15796308  0.89934227  0.75411228     0.08000
H662        H  0.09553076  0.85101968  0.99601926     0.08000
H663        H  0.05544045  0.82754664  0.53927649     0.08000
H664        H  0.10707986  0.80028929  0.52711840     0.04700
C665        C  0.40218775  0.64562195  0.58440179    -0.21100
C666        C  0.41407074  0.60319720  0.60070728    -0.07600
C667        C  0.39199271  0.58611601  0.64401908     0.13200
C668        C  0.35806908  0.61100192  0.66762676    -0.21100
C669        C  0.34573467  0.65320782  0.65088290    -0.07600
C670        C  0.36840304  0.67062609  0.60823432     0.13200
C671        C  0.35739997  0.71517293  0.58651895    -0.24500
H672        H  0.41867409  0.65919030  0.55142726     0.14500
H673        H  0.34164912  0.59739406  0.70061887     0.14500
C674        C  0.40358753  0.54193398  0.66650665    -0.24400
H675        H  0.37695961  0.72206440  0.55138992     0.04700
H676        H  0.36430327  0.74009986  0.61648539     0.08000
H677        H  0.32269868  0.71802364  0.57435451     0.08000
H678        H  0.43854824  0.53933248  0.67754332     0.08000
H679        H  0.39604474  0.51648239  0.63749731     0.08000
H680        H  0.38487219  0.53561017  0.70250997     0.04700
C681        C  0.36468953  0.83491668  0.88454888    -0.21100
C682        C  0.34303228  0.85903967  0.84469696    -0.07600
C683        C  0.35429712  0.90212379  0.83578184     0.13200
C684        C  0.38647209  0.91984224  0.86740295    -0.21100
C685        C  0.40833332  0.89558617  0.90698871    -0.07600
C686        C  0.39703911  0.85252071  0.91592495     0.13200
C687        C  0.41769941  0.82518287  0.95936317    -0.24500
H688        H  0.35618499  0.80189736  0.89127994     0.14500
H689        H  0.39503425  0.95285399  0.86068217     0.14500
C690        C  0.33405823  0.92919383  0.79186468    -0.24400
H691        H  0.40312732  0.79324550  0.96208598     0.04700
H692        H  0.41311604  0.84188563  0.99785902     0.08000
H693        H  0.45283200  0.81900986  0.95181477     0.08000
H694        H  0.29878120  0.93505968  0.79864420     0.08000
H695        H  0.33933940  0.91241598  0.75352419     0.08000
H696        H  0.34842232  0.96125106  0.78936809     0.04700
C697        C  0.41553857  0.60617878  0.85634403    -0.21100
C698        C  0.39677475  0.59028071  0.90229943    -0.07600
C699        C  0.35759024  0.61061097  0.92036759     0.13200
C700        C  0.33996006  0.64721786  0.89389067    -0.21100
C701        C  0.35878226  0.66319957  0.84800809    -0.07600
C702        C  0.39738457  0.64218675  0.82915746     0.13200
C703        C  0.41992788  0.65701642  0.78063520    -0.24500
H704        H  0.44519220  0.59048990  0.84151261     0.14500
H705        H  0.31020637  0.66279158  0.90861452     0.14500
C706        C  0.33311271  0.59354491  0.96620165    -0.24400
H707        H  0.44995920  0.63689737  0.77230313     0.04700
H708        H  0.42908708  0.69093287  0.78598363     0.08000
H709        H  0.39834887  0.65467060  0.74580928     0.08000
H710        H  0.35286765  0.59423350  0.00267271     0.08000
H711        H  0.32448928  0.55984631  0.95777880     0.08000
H712        H  0.30261487  0.61311826  0.97379375     0.04700
C713        C  0.14315943  0.89679001  0.91742481    -0.21100
C714        C  0.10122756  0.90956444  0.89873418    -0.07600
C715        C  0.08457873  0.88738154  0.85451263     0.13200
C716        C  0.11023826  0.85402507  0.83059467    -0.21100
C717        C  0.15225569  0.84142457  0.84919767    -0.07600
C718        C  0.16859144  0.86313477  0.89391720     0.13200
C719        C  0.21250638  0.85126370  0.91806320    -0.24500
H720        H  0.15617114  0.91269769  0.95168787     0.14500
H721        H  0.09731174  0.83809981  0.79629589     0.14500
C722        C  0.03995078  0.89812012  0.83172449    -0.24400
H723        H  0.21830737  0.86967246  0.95488916     0.04700
H724        H  0.23857931  0.85876993  0.89037774     0.08000
H725        H  0.21479040  0.81636700  0.92812496     0.08000
H726        H  0.03677862  0.93279478  0.82075612     0.08000
H727        H  0.01480360  0.89071377  0.86071160     0.08000
H728        H  0.03352506  0.87888898  0.79569566     0.04700
C729        C  0.35308570  0.90939681  0.59746540    -0.21100
C730        C  0.39862294  0.90890675  0.59658969    -0.07600
C731        C  0.42256146  0.87515402  0.62360901     0.13200
C732        C  0.40036422  0.84440401  0.65169355    -0.21100
C733        C  0.35484307  0.84532185  0.65328911    -0.07600
C734        C  0.33087745  0.87821504  0.62486295     0.13200
C735        C  0.28193437  0.88112493  0.62238242    -0.24500
H736        H  0.33442596  0.93423917  0.57590008     0.14500
H737        H  0.41904202  0.81943218  0.67302103     0.14500
C738        C  0.47146707  0.87053594  0.62338753    -0.24400
H739        H  0.26919576  0.90745498  0.59601767     0.04700
H740        H  0.26866726  0.88819316  0.66209689     0.08000
H741        H  0.26982349  0.85038357  0.60681221     0.08000
H742        H  0.48527871  0.90027811  0.63950026     0.08000
H743        H  0.48287072  0.86423578  0.58266026     0.08000
H744        H  0.48428364  0.84301011  0.64785514     0.04700
O745        O  0.89538839  0.47259625  0.04259128    -0.80900
O746        O  0.55801515  0.04673387  0.07662893    -0.80900
O747        O  0.54308084  0.41099973  0.02423450    -0.80900
O748        O  0.95865673  0.09239128  0.02468541    -0.80900
O749        O  0.55312967  0.46304389  0.07817286    -0.81000
O750        O  0.95141098  0.03567850  0.07520472    -0.80900
O751        O  0.54838271  0.09810947  0.01908627    -0.80900
O752        O  0.95888992  0.43749765  0.05526261    -0.80900
C753        C  0.91767115  0.44168223  0.06396777     1.08800
C754        C  0.56353819  0.08475680  0.06344804     1.08700
C755        C  0.56021247  0.42415227  0.06624021     1.08800
C756        C  0.94427887  0.07573132  0.06658904     1.08700
O757        O  0.90922553  0.04033560  0.47500051    -0.80900
O758        O  0.59291546  0.45897253  0.47459566    -0.81000
O759        O  0.97248683  0.39573972  0.46369770    -0.80900
O760        O  0.54436776  0.05368866  0.41861494    -0.80900
O761        O  0.59735361  0.04718925  0.47513576    -0.81000
O762        O  0.93696340  0.45840835  0.44817205    -0.80900
O763        O  0.96068828  0.04867999  0.42114494    -0.80900
O764        O  0.53567638  0.44929032  0.42364383    -0.80900
Co765      Co  0.94613634  0.49689584  0.01634936     1.51500
Co766      Co  0.57062669  0.00493167  0.52600988     1.51700
Co767      Co  0.99553243  0.44797417  0.98809043     1.51600
Co768      Co  0.00219985  0.06960088  0.47271483     1.51500
O769        O  0.00839009  0.50990040  0.00248768    -1.42800
C770        C  0.92189812  0.05659866  0.43280828     1.08700
C771        C  0.57610444  0.44310397  0.43307539     1.08800
C772        C  0.94116597  0.41694147  0.44158679     1.08700
C773        C  0.58246076  0.06120312  0.43093601     1.08700
O774        O  0.81882359  0.29630753  0.30239882    -0.80900
O775        O  0.65739625  0.20716800  0.27290111    -0.80900
O776        O  0.72057057  0.30647743  0.32579334    -0.80900
O777        O  0.79471069  0.20535949  0.33004474    -0.80900
O778        O  0.66302242  0.29615643  0.27561590    -0.81000
O779        O  0.84610520  0.21371454  0.27582129    -0.80900
O780        O  0.70986050  0.20066014  0.33003424    -0.80900
O781        O  0.78244489  0.35859280  0.28781718    -0.80900
C782        C  0.81393179  0.33761783  0.30985171     1.08800
C783        C  0.67212168  0.19260489  0.31692405     1.08700
C784        C  0.68010456  0.31247898  0.31679418     1.08800
C785        C  0.83351815  0.19757364  0.31824250     1.08700
O786        O  0.80557237  0.21873184  0.17492469    -0.80900
O787        O  0.70340618  0.29108143  0.17101521    -0.81000
O788        O  0.79428622  0.31651367  0.19551143    -0.80900
O789        O  0.71077622  0.15507367  0.22843891    -0.80900
O790        O  0.70083176  0.20665907  0.17105190    -0.81000
O791        O  0.85810504  0.28239915  0.20909181    -0.80900
O792        O  0.79921418  0.16247252  0.22625465    -0.80900
O793        O  0.71275601  0.34315126  0.22497700    -0.80900
Co794      Co  0.80782592  0.25795224  0.23611922     1.51500
Co795      Co  0.68433584  0.25029944  0.22318791     1.51700
Co796      Co  0.75847675  0.30693847  0.26359288     1.51600
Co797      Co  0.75354585  0.18395611  0.27845094     1.51500
O798        O  0.74585458  0.24461104  0.25066565    -1.42800
C799        C  0.81362814  0.17895101  0.18428472     1.08700
C800        C  0.69633849  0.33001525  0.18260328     1.08800
C801        C  0.83544603  0.31249389  0.18660390     1.08700
C802        C  0.69621033  0.16834898  0.18375216     1.08700
C803        C  0.63568781  0.11926121  0.17728917    -0.22500
C804        C  0.66571995  0.14362492  0.15117176    -0.07600
C805        C  0.66026857  0.15064932  0.09613097     0.13200
C806        C  0.62513425  0.13312775  0.06917622    -0.21100
C807        C  0.59491489  0.10899594  0.09543791    -0.07600
C808        C  0.60031293  0.10219496  0.15050422     0.13200
C809        C  0.56818262  0.07818679  0.18200445    -0.24500
H810        H  0.63887069  0.11500338  0.21958598     0.14500
H811        H  0.62191145  0.13737055  0.02690406     0.14500
C812        C  0.69172501  0.17586009  0.06504570    -0.24400
H813        H  0.57517977  0.07998388  0.22492084     0.04700
H814        H  0.56966197  0.04342891  0.17115552     0.08000
H815        H  0.53487089  0.09252285  0.17505053     0.08000
H816        H  0.72536292  0.16231708  0.07177093     0.08000
H817        H  0.68935658  0.21050288  0.07649410     0.08000
H818        H  0.68471244  0.17439968  0.02212360     0.04700
C819        C  0.64693099  0.10425931  0.41598954    -0.21100
C820        C  0.60582886  0.09281575  0.39881575    -0.07600
C821        C  0.58624625  0.11545620  0.35501967     0.13200
C822        C  0.60820227  0.14840307  0.33063654    -0.21100
C823        C  0.64912043  0.16012725  0.34813710    -0.07600
C824        C  0.66891811  0.13715260  0.39158033     0.13200
C825        C  0.71359630  0.14581121  0.41266174    -0.24500
H826        H  0.66202262  0.08750840  0.44936679     0.14500
H827        H  0.59315226  0.16512232  0.29720821     0.14500
C828        C  0.54180886  0.10641122  0.33359668    -0.24400
H829        H  0.72293505  0.12515332  0.44698763     0.04700
H830        H  0.71466050  0.17998932  0.42580666     0.08000
H831        H  0.73814667  0.13843115  0.38186422     0.08000
H832        H  0.51701569  0.11450872  0.36388066     0.08000
H833        H  0.54083260  0.07197415  0.32151820     0.08000
H834        H  0.53293366  0.12627665  0.29844266     0.04700
C835        C  0.61630921  0.41965542  0.13640568    -0.21100
C836        C  0.59382989  0.39834047  0.09613015    -0.07600
C837        C  0.60705462  0.35529759  0.08292253     0.13200
C838        C  0.64190870  0.33503629  0.11049677    -0.21100
C839        C  0.66390432  0.35615283  0.15134568    -0.07600
C840        C  0.65119445  0.39943117  0.16389162     0.13200
C841        C  0.67403892  0.42501840  0.20556276    -0.24500
H842        H  0.60692948  0.45286840  0.14637328     0.14500
H843        H  0.65141267  0.30186073  0.10047435     0.14500
C844        C  0.58473968  0.32996970  0.04056855    -0.24400
H845        H  0.66090362  0.45906631  0.20768979     0.04700
H846        H  0.70911581  0.42555216  0.19645713     0.08000
H847        H  0.66976703  0.41063861  0.24491250     0.08000
H848        H  0.58648430  0.34587063  0.50320244     0.08000
H849        H  0.54973664  0.32851226  0.04961260     0.08000
H850        H  0.59858750  0.29621643  0.03750523     0.04700
C851        C  0.89948847  0.14390459  0.08215920    -0.21100
C852        C  0.91323825  0.10237391  0.10013598    -0.07600
C853        C  0.89309921  0.08622379  0.14541786     0.13200
C854        C  0.85962709  0.11129633  0.16986093    -0.21100
C855        C  0.84555986  0.15264826  0.15154530    -0.07600
C856        C  0.86596632  0.16894298  0.10651952     0.13200
C857        C  0.85270641  0.21231097  0.08281970    -0.24500
H858        H  0.91423447  0.15669463  0.04744448     0.14500
H859        H  0.84493605  0.09855253  0.20463064     0.14500
C860        C  0.90650851  0.04291578  0.16915446    -0.24400
H861        H  0.87036827  0.21821853  0.04589965     0.04700
H862        H  0.86020198  0.23867238  0.11064406     0.08000
H863        H  0.81749984  0.21379210  0.07302693     0.08000
H864        H  0.94184777  0.04133369  0.17820154     0.08000
H865        H  0.89851512  0.01646791  0.14168051     0.08000
H866        H  0.88933694  0.03727078  0.20649691     0.04700
C867        C  0.86301341  0.33650116  0.38753885    -0.21100
C868        C  0.84487791  0.35941012  0.34439084    -0.07600
C869        C  0.85942278  0.40082638  0.33271746     0.13200
C870        C  0.89135648  0.41826497  0.36484257    -0.21100
C871        C  0.90967958  0.39527809  0.40776624    -0.07600
C872        C  0.89502783  0.35393771  0.41964139     0.13200
C873        C  0.91169615  0.32858410  0.46692656    -0.24500
H874        H  0.85190470  0.30473330  0.39631097     0.14500
H875        H  0.90246828  0.45004060  0.35602089     0.14500
C876        C  0.84290325  0.42621325  0.28541483    -0.24400
H877        H  0.89484716  0.29803677  0.47149778     0.04700
H878        H  0.90630825  0.34808531  0.50331547     0.08000
H879        H  0.94681902  0.31985300  0.46264740     0.08000
H880        H  0.80773777  0.43479249  0.28945693     0.08000
H881        H  0.84853050  0.40680044  0.24903649     0.08000
H882        H  0.85966335  0.45683573  0.28102864     0.04700
C883        C  0.91532367  0.10623671  0.35662806    -0.21100
C884        C  0.89641746  0.09040286  0.40248239    -0.07600
C885        C  0.85762677  0.11126657  0.42099531     0.13200
C886        C  0.83993610  0.14764935  0.39418199    -0.21100
C887        C  0.85895699  0.16362458  0.34844740    -0.07600
C888        C  0.89768274  0.14266529  0.32986003     0.13200
C889        C  0.92109582  0.15823345  0.28236075    -0.24500
H890        H  0.94490670  0.09031394  0.34176151     0.14500
H891        H  0.81034387  0.16347740  0.40900801     0.14500
C892        C  0.83427952  0.09574565  0.46859015    -0.24400
H893        H  0.95122347  0.13817129  0.27433427     0.04700
H894        H  0.93025850  0.19202587  0.28889670     0.08000
H895        H  0.90018498  0.15654009  0.24686426     0.08000
H896        H  0.85508707  0.09804832  0.50416709     0.08000
H897        H  0.82556697  0.06176142  0.46240320     0.08000
H898        H  0.80383563  0.11544097  0.47618889     0.04700
C899        C  0.63780720  0.38816910  0.42700405    -0.21100
C900        C  0.60318436  0.41137350  0.40128495    -0.07600
C901        C  0.59421290  0.40146595  0.34801291     0.13200
C902        C  0.61894128  0.36806257  0.32277345    -0.21100
C903        C  0.65339067  0.34462828  0.34855788    -0.07600
C904        C  0.66301577  0.35525890  0.40152720     0.13200
C905        C  0.69897396  0.33157756  0.43216122    -0.24500
H906        H  0.64484823  0.39522842  0.46788124     0.14500
H907        H  0.61199360  0.36111639  0.28183546     0.14500
C908        C  0.56006060  0.42706299  0.31661097    -0.24400
H909        H  0.69979151  0.34212524  0.47402657     0.04700
H910        H  0.73090440  0.33802111  0.41505237     0.08000
H911        H  0.69415830  0.29631102  0.43137362     0.08000
H912        H  0.56657792  0.46197044  0.31834569     0.08000
H913        H  0.52734566  0.42214389  0.33232060     0.08000
H914        H  0.55984488  0.41708280  0.27454344     0.04700
C915        C  0.85526416  0.39707676  0.08207725    -0.21100
C916        C  0.89670892  0.40966949  0.09709740    -0.07600
C917        C  0.91817166  0.38896805  0.14039179     0.13200
C918        C  0.89762541  0.35649943  0.16733645    -0.21100
C919        C  0.85616316  0.34400895  0.15255296    -0.07600
C920        C  0.83477396  0.36438913  0.10893579     0.13200
C921        C  0.79119329  0.35101087  0.08917146    -0.24500
H922        H  0.83923104  0.41217964  0.04816424     0.14500
H923        H  0.91372073  0.34144381  0.20123333     0.14500
C924        C  0.96214208  0.40159662  0.15966009    -0.24400
H925        H  0.78116721  0.36795096  0.05218833     0.04700
H926        H  0.76591799  0.35917029  0.11876333     0.08000
H927        H  0.79264283  0.31570652  0.08097735     0.08000
H928        H  0.96147586  0.43692922  0.16749773     0.08000
H929        H  0.98708847  0.39265629  0.12991366     0.08000
H930        H  0.97206299  0.38474729  0.19672455     0.04700
O931        O  0.89791432  0.47399137  0.54134100    -0.80900
O932        O  0.55518871  0.04919839  0.57776338    -0.80900
O933        O  0.54253535  0.41247874  0.52460100    -0.80900
O934        O  0.95706097  0.09064830  0.52569829    -0.80900
O935        O  0.55265570  0.46463204  0.57862460    -0.81000
O936        O  0.94889369  0.03368822  0.57561448    -0.80900
O937        O  0.54559230  0.10021465  0.51949182    -0.80900
O938        O  0.96091150  0.43875186  0.55495482    -0.80900
C939        C  0.91970342  0.44324079  0.56368074     1.08800
C940        C  0.56036980  0.08724553  0.56419892     1.08700
C941        C  0.55931502  0.42559868  0.56687713     1.08800
C942        C  0.94188843  0.07373103  0.56703598     1.08700
O943        O  0.90990209  0.04207009  0.97538503    -0.80900
O944        O  0.59292292  0.45738931  0.97382929    -0.81000
O945        O  0.97183497  0.39652077  0.96271645    -0.80900
O946        O  0.54529440  0.05212511  0.91785437    -0.80900
O947        O  0.59906443  0.04466418  0.97316507    -0.81000
O948        O  0.93505697  0.45879533  0.94988228    -0.80900
O949        O  0.96070918  0.05027721  0.92039241    -0.80900
O950        O  0.53534481  0.44847373  0.92345826    -0.80900
Co951      Co  0.94878197  0.49731719  0.51364248     1.51500
Co952      Co  0.57223584  0.00263254  0.02425429     1.51700
Co953      Co  0.99719360  0.44725134  0.48683760     1.51600
Co954      Co  0.00306756  0.07070282  0.97113576     1.51500
O955        O  0.01082667  0.50954008  0.49832070    -1.42800
C956        C  0.92214395  0.05844463  0.93297591     1.08700
C957        C  0.57570316  0.44173573  0.93247609     1.08800
C958        C  0.93981192  0.41754451  0.94188174     1.08700
C959        C  0.58360708  0.05916453  0.92943342     1.08700
O960        O  0.81735885  0.29707646  0.80223518    -0.80900
O961        O  0.65648284  0.20617247  0.77180209    -0.80900
O962        O  0.71906596  0.30425355  0.82586315    -0.80900
O963        O  0.79351273  0.20585433  0.82974257    -0.80900
O964        O  0.66171316  0.29469269  0.77523072    -0.81000
O965        O  0.84506549  0.21486531  0.77574166    -0.80900
O966        O  0.70866566  0.20081167  0.82930092    -0.80900
O967        O  0.77939691  0.35869847  0.78961205    -0.80900
C968        C  0.81146195  0.33816494  0.81094948     1.08800
C969        C  0.67117774  0.19204260  0.81600500     1.08700
C970        C  0.67868717  0.31041799  0.81678171     1.08800
C971        C  0.83246687  0.19865109  0.81816466     1.08700
O972        O  0.80529187  0.21901131  0.67474595    -0.80900
O973        O  0.70186304  0.29112536  0.67079477    -0.81000
O974        O  0.79283492  0.31846480  0.69654281    -0.80900
O975        O  0.71006864  0.15471714  0.72789496    -0.80900
O976        O  0.69982663  0.20604876  0.67006974    -0.81000
O977        O  0.85666706  0.28442755  0.70878329    -0.80900
O978        O  0.79843229  0.16278413  0.72629421    -0.80900
O979        O  0.71069191  0.34264149  0.72587268    -0.80900
Co980      Co  0.80675317  0.25872311  0.73560527     1.51500
Co981      Co  0.68321275  0.24959714  0.72237493     1.51700
Co982      Co  0.75684874  0.30677549  0.76402064     1.51600
Co983      Co  0.75261285  0.18408101  0.77805001     1.51500
O984        O  0.74493360  0.24447842  0.74964661    -1.42800
C985        C  0.81286519  0.17911197  0.68426111     1.08700
C986        C  0.69435635  0.32986078  0.68327996     1.08800
C987        C  0.83404740  0.31529231  0.68765529     1.08700
C988        C  0.69522120  0.16778042  0.68321300     1.08700
C989        C  0.63153247  0.12244544  0.67815947    -0.22500
C990        C  0.66399669  0.14324972  0.65150290    -0.07600
C991        C  0.66027480  0.14800742  0.59603741     0.13200
C992        C  0.62410936  0.13248255  0.56915370    -0.21100
C993        C  0.59169418  0.11162564  0.59582618    -0.07600
C994        C  0.59553274  0.10663254  0.65125507     0.13200
C995        C  0.56120678  0.08570688  0.68269909    -0.24500
H996        H  0.63355244  0.11985985  0.72072578     0.14500
H997        H  0.62210544  0.13502352  0.52658406     0.14500
C998        C  0.69511280  0.16801104  0.56452640    -0.24400
H999        H  0.56792606  0.08778146  0.72558231     0.04700
H1000       H  0.56022990  0.05086315  0.67287338     0.08000
H1001       H  0.52898550  0.10220101  0.67470860     0.08000
H1002       H  0.72695369  0.15074269  0.57254079     0.08000
H1003       H  0.69701149  0.20275336  0.57436902     0.08000
H1004       H  0.68834819  0.16600112  0.52162242     0.04700
C1005       C  0.64760007  0.10258496  0.91408204    -0.21100
C1006       C  0.60651459  0.09095409  0.89720099    -0.07600
C1007       C  0.58627484  0.11394765  0.85405496     0.13200
C1008       C  0.60781835  0.14715990  0.82971193    -0.21100
C1009       C  0.64870185  0.15911711  0.84700246    -0.07600
C1010       C  0.66890632  0.13614777  0.89018442     0.13200
C1011       C  0.71312760  0.14582771  0.91188729    -0.24500
H1012       H  0.66305505  0.08570587  0.94716797     0.14500
H1013       H  0.59233337  0.16412804  0.79669068     0.14500
C1014       C  0.54143301  0.10527208  0.83361794    -0.24400
H1015       H  0.72256707  0.12542817  0.94642194     0.04700
H1016       H  0.71322885  0.18004899  0.92509547     0.08000
H1017       H  0.73812494  0.13907862  0.88144422     0.08000
H1018       H  0.51723261  0.11307399  0.86466530     0.08000
H1019       H  0.54011156  0.07100238  0.82093200     0.08000
H1020       H  0.53190319  0.12572547  0.79919020     0.04700
C1021       C  0.61421772  0.42003445  0.63847950    -0.21100
C1022       C  0.59190412  0.39919840  0.59766869    -0.07600
C1023       C  0.60451836  0.35595488  0.58462939     0.13200
C1024       C  0.63906146  0.33526240  0.61226909    -0.21100
C1025       C  0.66142937  0.35612955  0.65294889    -0.07600
C1026       C  0.64884354  0.39935861  0.66603120     0.13200
C1027       C  0.67158319  0.42443044  0.70829437    -0.24500
H1028       H  0.60506642  0.45327396  0.64860355     0.14500
H1029       H  0.64821135  0.30202326  0.60218341     0.14500
C1030       C  0.58204365  0.33087790  0.54216374    -0.24400
H1031       H  0.65851871  0.45848097  0.71090321     0.04700
H1032       H  0.70670810  0.42501954  0.69948688     0.08000
H1033       H  0.66706083  0.40958585  0.74735162     0.08000
H1034       H  0.58865667  0.34522382  0.00164764     0.08000
H1035       H  0.54694019  0.32999139  0.55085583     0.08000
H1036       H  0.59535261  0.29692300  0.53936811     0.04700
C1037       C  0.89893010  0.14267065  0.58332856    -0.21100
C1038       C  0.91038469  0.10024517  0.59996390    -0.07600
C1039       C  0.88788839  0.08353835  0.64319842     0.13200
C1040       C  0.85515587  0.10952715  0.66773346    -0.21100
C1041       C  0.84391711  0.15210217  0.65122517    -0.07600
C1042       C  0.86620156  0.16859552  0.60776235     0.13200
C1043       C  0.85625486  0.21338568  0.58622850    -0.24500
H1044       H  0.91529065  0.15578635  0.54993959     0.14500
H1045       H  0.83870722  0.09643662  0.70108227     0.14500
C1046       C  0.89775143  0.03860920  0.66443415    -0.24400
H1047       H  0.87536789  0.21959213  0.55051267     0.04700
H1048       H  0.86458877  0.23803432  0.61596643     0.08000
H1049       H  0.82139778  0.21739505  0.57503558     0.08000
H1050       H  0.93257436  0.03450077  0.67576105     0.08000
H1051       H  0.88954131  0.01410748  0.63445806     0.08000
H1052       H  0.87848752  0.03224201  0.69998617     0.04700
C1053       C  0.86345312  0.33587753  0.88596505    -0.21100
C1054       C  0.84215210  0.36014022  0.84592557    -0.07600
C1055       C  0.85349166  0.40324952  0.83746364     0.13200
C1056       C  0.88616719  0.42047814  0.86871803    -0.21100
C1057       C  0.90790989  0.39600949  0.90823044    -0.07600
C1058       C  0.89582529  0.35327663  0.91758351     0.13200
C1059       C  0.91559772  0.32621127  0.96179375    -0.24500
H1060       H  0.85459236  0.30296096  0.89269142     0.14500
H1061       H  0.89497450  0.45342193  0.86202354     0.14500
C1062       C  0.83250441  0.43101529  0.79466493    -0.24400
H1063       H  0.90040212  0.29462344  0.96492973     0.04700
H1064       H  0.91091783  0.34349650  0.99990309     0.08000
H1065       H  0.95073322  0.31939436  0.95486232     0.08000
H1066       H  0.79734075  0.43668219  0.80246986     0.08000
H1067       H  0.83713842  0.41491201  0.75581071     0.08000
H1068       H  0.84674143  0.46315151  0.79260686     0.04700
C1069       C  0.91510127  0.10835255  0.85709864    -0.21100
C1070       C  0.89655788  0.09259145  0.90322743    -0.07600
C1071       C  0.85795600  0.11357532  0.92215588     0.13200
C1072       C  0.83989394  0.14975663  0.89516442    -0.21100
C1073       C  0.85836462  0.16533276  0.84883571    -0.07600
C1074       C  0.89701127  0.14440217  0.83002913     0.13200
C1075       C  0.91958100  0.15925026  0.78152274    -0.24500
H1076       H  0.94454250  0.09239599  0.84189325     0.14500
H1077       H  0.81034423  0.16558021  0.91012927     0.14500
C1078       C  0.83509449  0.09823154  0.97018810    -0.24400
H1079       H  0.94993936  0.13950423  0.77364695     0.04700
H1080       H  0.92829230  0.19333641  0.78666446     0.08000
H1081       H  0.89824322  0.15631126  0.74650698     0.08000
H1082       H  0.85636138  0.10034032  0.00535236     0.08000
H1083       H  0.82613186  0.06430609  0.96422239     0.08000
H1084       H  0.80486300  0.11811956  0.97830923     0.04700
C1085       C  0.63862709  0.38850546  0.92527386    -0.21100
C1086       C  0.60217470  0.40956846  0.90065975    -0.07600
C1087       C  0.59079071  0.39679363  0.84898998     0.13200
C1088       C  0.61568368  0.36348040  0.82400633    -0.21100
C1089       C  0.65206704  0.34236075  0.84866690    -0.07600
C1090       C  0.66362800  0.35531513  0.90023742     0.13200
C1091       C  0.70161124  0.33407904  0.92989731    -0.24500
H1092       H  0.64735574  0.39744495  0.96512202     0.14500
H1093       H  0.60706547  0.35464296  0.78409235     0.14500
C1094       C  0.55330631  0.41860709  0.81906431    -0.24400
H1095       H  0.70365087  0.34614526  0.97108337     0.04700
H1096       H  0.73247568  0.34115696  0.91052927     0.08000
H1097       H  0.69822983  0.29859990  0.93140498     0.08000
H1098       H  0.55727130  0.45400288  0.81770099     0.08000
H1099       H  0.52220454  0.41201020  0.83815733     0.08000
H1100       H  0.55135708  0.40663865  0.77782755     0.04700
C1101       C  0.85368137  0.40602136  0.58959377    -0.21100
C1102       C  0.89806849  0.41205127  0.59803677    -0.07600
C1103       C  0.92085578  0.38607248  0.63616868     0.13200
C1104       C  0.89903693  0.35449024  0.66339305    -0.21100
C1105       C  0.85483519  0.34799037  0.65451752    -0.07600
C1106       C  0.83170849  0.37471329  0.61727962     0.13200
C1107       C  0.78412984  0.37034706  0.60547408    -0.24500
H1108       H  0.83605575  0.42550326  0.56027738     0.14500
H1109       H  0.91670939  0.33506535  0.69269668     0.14500
C1110       C  0.96794309  0.39170418  0.64964206    -0.24400
H1111       H  0.77234775  0.39191857  0.57294824     0.04700
H1112       H  0.76472850  0.37952021  0.64067667     0.08000
H1113       H  0.77827897  0.33659886  0.59354834     0.08000
H1114       H  0.97279493  0.42594804  0.66030066     0.08000
H1115       H  0.98855366  0.38176755  0.61575506     0.08000
H1116       H  0.97911539  0.37141625  0.68359980     0.04700
O1117       O  0.89800822  0.97272819  0.04072171    -0.80900
O1118       O  0.55726688  0.54772613  0.07759084    -0.80900
O1119       O  0.54256570  0.91057751  0.02295143    -0.80900
O1120       O  0.95592709  0.59207829  0.02577196    -0.80900
O1121       O  0.55247248  0.96268618  0.07671273    -0.81000
O1122       O  0.94844949  0.53608333  0.07742431    -0.80900
O1123       O  0.54780223  0.59849161  0.01901173    -0.80900
O1124       O  0.96132307  0.93735884  0.05193139    -0.80900
C1125       C  0.92030148  0.94165532  0.06175500     1.08800
C1126       C  0.56253136  0.58567799  0.06378793     1.08700
C1127       C  0.55906067  0.92368338  0.06532129     1.08800
C1128       C  0.94120062  0.57594486  0.06782385     1.08700
O1129       O  0.91081777  0.54196041  0.47408937    -0.80900
O1130       O  0.59095152  0.95906530  0.47369059    -0.81000
O1131       O  0.97284353  0.89560559  0.46215532    -0.80900
O1132       O  0.54544340  0.55370863  0.41811049    -0.80900
O1133       O  0.59834247  0.54741102  0.47490556    -0.81000
O1134       O  0.93745317  0.95810737  0.44638175    -0.80900
O1135       O  0.96130853  0.54919380  0.41829811    -0.80900
O1136       O  0.53325292  0.95005694  0.42362502    -0.80900
Co1137     Co  0.94826815  0.99698356  0.01358330     1.51500
Co1138     Co  0.57158861  0.50518326  0.52602520     1.51700
Co1139     Co  0.99723490  0.94798774  0.98419004     1.51600
Co1140     Co  0.00382561  0.56982130  0.46894362     1.51500
O1141       O  0.01025998  0.00995229  0.99849429    -1.42800
C1142       C  0.92278199  0.55759265  0.43107426     1.08700
C1143       C  0.57363242  0.94336457  0.43237492     1.08800
C1144       C  0.94179116  0.91671985  0.43950575     1.08700
C1145       C  0.58347884  0.56138403  0.43062166     1.08700
O1146       O  0.81706668  0.79757583  0.30260659    -0.80900
O1147       O  0.65626172  0.70854774  0.27332992    -0.80900
O1148       O  0.71854553  0.80652143  0.32604137    -0.80900
O1149       O  0.79392640  0.70679564  0.32964158    -0.80900
O1150       O  0.66140961  0.79699332  0.27524146    -0.81000
O1151       O  0.84484892  0.71510972  0.27479774    -0.80900
O1152       O  0.70890230  0.70300512  0.33037960    -0.80900
O1153       O  0.78001731  0.85989704  0.28991767    -0.80900
C1154       C  0.81201600  0.83879454  0.31074639     1.08800
C1155       C  0.67126667  0.69444241  0.31748456     1.08700
C1156       C  0.67820150  0.81282699  0.31678103     1.08800
C1157       C  0.83257086  0.69870196  0.31722610     1.08700
O1158       O  0.80409016  0.72099621  0.17436486    -0.80900
O1159       O  0.70220790  0.79243860  0.17139699    -0.81000
O1160       O  0.79313185  0.81943753  0.19727953    -0.80900
O1161       O  0.70899961  0.65671458  0.22915071    -0.80900
O1162       O  0.69882659  0.70758670  0.17071681    -0.81000
O1163       O  0.85662359  0.78482643  0.20940587    -0.80900
O1164       O  0.79694239  0.66456063  0.22549420    -0.80900
O1165       O  0.71103774  0.84444058  0.22577112    -0.80900
Co1166     Co  0.80635015  0.75977500  0.23587115     1.51500
Co1167     Co  0.68285203  0.75145060  0.22302267     1.51700
Co1168     Co  0.75674909  0.80834310  0.26448037     1.51600
Co1169     Co  0.75211974  0.68581200  0.27847754     1.51500
O1170       O  0.74448974  0.74613379  0.25022333    -1.42800
C1171       C  0.81125464  0.68102254  0.18344016     1.08700
C1172       C  0.69460989  0.83123450  0.18342320     1.08800
C1173       C  0.83430853  0.81587290  0.18833850     1.08700
C1174       C  0.69444474  0.66936616  0.18423487     1.08700
C1175       C  0.63080514  0.62422598  0.17873622    -0.22500
C1176       C  0.66405496  0.64407962  0.15240021    -0.07600
C1177       C  0.66232710  0.64654057  0.09665040     0.13200
C1178       C  0.62711205  0.62982455  0.06901070    -0.21100
C1179       C  0.59365489  0.61026683  0.09541869    -0.07600
C1180       C  0.59585007  0.60711603  0.15112337     0.13200
C1181       C  0.56097113  0.58659441  0.18203725    -0.24500
H1182       H  0.63146880  0.62326340  0.22135416     0.14500
H1183       H  0.62653609  0.63062521  0.02636678     0.14500
C1184       C  0.69822986  0.66547154  0.06585957    -0.24400
H1185       H  0.56639337  0.58996229  0.22505681     0.04700
H1186       H  0.56079575  0.55146831  0.17344623     0.08000
H1187       H  0.52879878  0.60238747  0.17209587     0.08000
H1188       H  0.72986004  0.64894857  0.07678763     0.08000
H1189       H  0.69942382  0.70061043  0.07384095     0.08000
H1190       H  0.69334831  0.66142120  0.02276038     0.04700
C1191       C  0.64809267  0.60429762  0.41501991    -0.21100
C1192       C  0.60662860  0.59328237  0.39865185    -0.07600
C1193       C  0.58638660  0.61667713  0.35584272     0.13200
C1194       C  0.60775824  0.65022758  0.33204351    -0.21100
C1195       C  0.64899041  0.66150486  0.34866498    -0.07600
C1196       C  0.66971474  0.63756299  0.39077509     0.13200
C1197       C  0.71497686  0.64553116  0.41045395    -0.24500
H1198       H  0.66375303  0.58688362  0.44755731     0.14500
H1199       H  0.59202399  0.66772619  0.29964201     0.14500
C1200       C  0.54178138  0.60787164  0.33489188    -0.24400
H1201       H  0.72507097  0.62408484  0.44380284     0.04700
H1202       H  0.71658831  0.67937546  0.42464614     0.08000
H1203       H  0.73865691  0.63880183  0.37849017     0.08000
H1204       H  0.51740552  0.61528176  0.36582261     0.08000
H1205       H  0.54080475  0.57367909  0.32175760     0.08000
H1206       H  0.53236297  0.62848660  0.30057237     0.04700
C1207       C  0.61076569  0.91826614  0.13991518    -0.21100
C1208       C  0.59121533  0.89763834  0.09683170    -0.07600
C1209       C  0.60641495  0.85548424  0.08238825     0.13200
C1210       C  0.64138377  0.83597490  0.11031675    -0.21100
C1211       C  0.66131259  0.85679404  0.15297839    -0.07600
C1212       C  0.64556989  0.89866881  0.16804567     0.13200
C1213       C  0.66483070  0.92335475  0.21325082    -0.24500
H1214       H  0.59925344  0.95055986  0.15145395     0.14500
H1215       H  0.65282961  0.80364560  0.09883025     0.14500
C1216       C  0.58640609  0.83043829  0.03802554    -0.24400
H1217       H  0.64899241  0.95621162  0.21775200     0.04700
H1218       H  0.69986645  0.92721957  0.20640970     0.08000
H1219       H  0.66044695  0.90610385  0.25077991     0.08000
H1220       H  0.58974239  0.84961526  0.49895653     0.08000
H1221       H  0.55133403  0.82731585  0.04534978     0.08000
H1222       H  0.60159251  0.79724961  0.03428936     0.04700
C1223       C  0.89704744  0.64462805  0.08221538    -0.21100
C1224       C  0.90968141  0.60283253  0.10029299    -0.07600
C1225       C  0.88809751  0.58669597  0.14453963     0.13200
C1226       C  0.85468229  0.61224310  0.16818366    -0.21100
C1227       C  0.84226535  0.65414098  0.15036827    -0.07600
C1228       C  0.86373419  0.67026867  0.10605891     0.13200
C1229       C  0.85201515  0.71414741  0.08280838    -0.24500
H1230       H  0.91276857  0.65730183  0.04811159     0.14500
H1231       H  0.83890570  0.59948545  0.20219639     0.14500
C1232       C  0.89985708  0.54293228  0.16812041    -0.24400
H1233       H  0.87035945  0.71986757  0.04634142     0.04700
H1234       H  0.85991200  0.73998480  0.11119615     0.08000
H1235       H  0.81693620  0.71670871  0.07236537     0.08000
H1236       H  0.93487378  0.54054327  0.17887049     0.08000
H1237       H  0.89220226  0.51694962  0.13983968     0.08000
H1238       H  0.88135995  0.53724505  0.20448713     0.04700
C1239       C  0.86366039  0.83638811  0.38561233    -0.21100
C1240       C  0.84373274  0.86024310  0.34436260    -0.07600
C1241       C  0.85781270  0.90186756  0.33291495     0.13200
C1242       C  0.89066743  0.91882864  0.36400925    -0.21100
C1243       C  0.91045795  0.89507089  0.40546073    -0.07600
C1244       C  0.89684843  0.85312829  0.41634379     0.13200
C1245       C  0.91599936  0.82617418  0.46102072    -0.24500
H1246       H  0.85314564  0.80427520  0.39386582     0.14500
H1247       H  0.90120077  0.95092030  0.35566028     0.14500
C1248       C  0.83981757  0.92795597  0.28687950    -0.24400
H1249       H  0.90003408  0.79504028  0.46476930     0.04700
H1250       H  0.91182830  0.84399720  0.49882199     0.08000
H1251       H  0.95099429  0.81840062  0.45405417     0.08000
H1252       H  0.80479167  0.93636004  0.29261406     0.08000
H1253       H  0.84442161  0.90913068  0.24984341     0.08000
H1254       H  0.85635760  0.95870141  0.28243621     0.04700
C1255       C  0.91490804  0.60706329  0.35443621    -0.21100
C1256       C  0.89682401  0.59142331  0.40095080    -0.07600
C1257       C  0.85835125  0.61252433  0.42020083     0.13200
C1258       C  0.83992684  0.64853220  0.39314205    -0.21100
C1259       C  0.85821474  0.66438736  0.34688210    -0.07600
C1260       C  0.89674587  0.64338163  0.32771329     0.13200
C1261       C  0.91947770  0.65889241  0.27967712    -0.24500
H1262       H  0.94435281  0.59119396  0.33910461     0.14500
H1263       H  0.81053610  0.66440347  0.40847209     0.14500
C1264       C  0.83630023  0.59789217  0.46917815    -0.24400
H1265       H  0.94963629  0.63898262  0.27127745     0.04700
H1266       H  0.92853209  0.69276937  0.28582940     0.08000
H1267       H  0.89811532  0.65695337  0.24457979     0.08000
H1268       H  0.85806359  0.60087397  0.50380700     0.08000
H1269       H  0.82747215  0.56381166  0.46439901     0.08000
H1270       H  0.80607250  0.61773371  0.47745034     0.04700
C1271       C  0.63958871  0.89441214  0.42234213    -0.21100
C1272       C  0.60017414  0.91138475  0.40021526    -0.07600
C1273       C  0.58613103  0.89432399  0.35144188     0.13200
C1274       C  0.61173690  0.86139764  0.32666660    -0.21100
C1275       C  0.65120961  0.84450942  0.34881385    -0.07600
C1276       C  0.66502013  0.86132818  0.39778667     0.13200
C1277       C  0.70597303  0.84442057  0.42543546    -0.24500
H1278       H  0.65042299  0.90640289  0.46007418     0.14500
H1279       H  0.60097671  0.84937681  0.28891899     0.14500
C1280       C  0.54467270  0.91064213  0.32445556    -0.24400
H1281       H  0.70968593  0.85912767  0.46510716     0.04700
H1282       H  0.73484897  0.85226796  0.40242120     0.08000
H1283       H  0.70521154  0.80889727  0.43064333     0.08000
H1284       H  0.54499410  0.94613863  0.31877581     0.08000
H1285       H  0.51624775  0.90273110  0.34826589     0.08000
H1286       H  0.54054542  0.89553188  0.28507193     0.04700
C1287       C  0.85390928  0.90914465  0.09431596    -0.21100
C1288       C  0.89934155  0.91027001  0.09638005    -0.07600
C1289       C  0.92306376  0.87990154  0.12873000     0.13200
C1290       C  0.90073893  0.84935449  0.15702493    -0.21100
C1291       C  0.85530784  0.84794302  0.15457539    -0.07600
C1292       C  0.83156103  0.87877718  0.12282035     0.13200
C1293       C  0.78273696  0.88023598  0.11786178    -0.24500
H1294       H  0.83550423  0.93197878  0.06951662     0.14500
H1295       H  0.91913927  0.82658328  0.18188719     0.14500
C1296       C  0.97180055  0.87929372  0.13466075    -0.24400
H1297       H  0.77027130  0.90502874  0.08925162     0.04700
H1298       H  0.76796403  0.88876971  0.15641248     0.08000
H1299       H  0.77195103  0.84848197  0.10389818     0.08000
H1300       H  0.98189109  0.91153124  0.14785076     0.08000
H1301       H  0.98727502  0.87017469  0.09669831     0.08000
H1302       H  0.98418087  0.85529739  0.16427554     0.04700
O1303       O  0.89650462  0.97071154  0.53855867    -0.80900
O1304       O  0.55514392  0.54968675  0.57719969    -0.80900
O1305       O  0.54152768  0.91260167  0.52420212    -0.80900
O1306       O  0.95955453  0.59275363  0.52184611    -0.80900
O1307       O  0.55193137  0.96427731  0.57862260    -0.81000
O1308       O  0.95250385  0.53701086  0.57405343    -0.80900
O1309       O  0.54603399  0.60029020  0.51845218    -0.80900
O1310       O  0.96013298  0.93709885  0.55442729    -0.80900
C1311       C  0.91872457  0.94079161  0.56183994     1.08800
C1312       C  0.56041549  0.58763432  0.56333151     1.08700
C1313       C  0.55828407  0.92528507  0.56658357     1.08800
C1314       C  0.94579315  0.57695894  0.56457662     1.08700
O1315       O  0.90835707  0.54144553  0.97641439    -0.80900
O1316       O  0.59190891  0.95648050  0.97173718    -0.81000
O1317       O  0.97314395  0.89683271  0.95899099    -0.80900
O1318       O  0.54623317  0.55129735  0.91845298    -0.80900
O1319       O  0.59944349  0.54549972  0.97463256    -0.81000
O1320       O  0.93625528  0.95908812  0.94701813    -0.80900
O1321       O  0.95986599  0.54852397  0.92211006    -0.80900
O1322       O  0.53400808  0.94808433  0.92198716    -0.80900
Co1323     Co  0.94737320  0.99549652  0.51357476     1.51500
Co1324     Co  0.57245360  0.50344332  0.02580084     1.51700
Co1325     Co  0.99654840  0.94716232  0.48704622     1.51600
Co1326     Co  0.00120964  0.56996522  0.97347078     1.51500
O1327       O  0.00965525  0.00922042  0.50078541    -1.42800
C1328       C  0.92112710  0.55692222  0.93369109     1.08700
C1329       C  0.57433315  0.94086466  0.93052590     1.08800
C1330       C  0.94082092  0.91779210  0.93877572     1.08700
C1331       C  0.58432100  0.55903920  0.93030171     1.08700
O1332       O  0.81628530  0.79610156  0.80250876    -0.80900
O1333       O  0.65742113  0.70414953  0.76916693    -0.80900
O1334       O  0.71828303  0.80310618  0.82335839    -0.80900
O1335       O  0.79422049  0.70420124  0.82676790    -0.80900
O1336       O  0.66102823  0.79326870  0.77290140    -0.81000
O1337       O  0.84623276  0.71391116  0.77412754    -0.80900
O1338       O  0.71005541  0.69834978  0.82604528    -0.80900
O1339       O  0.77887406  0.85767485  0.78835221    -0.80900
C1340       C  0.81050481  0.83729383  0.81077849     1.08800
C1341       C  0.67254678  0.68957958  0.81302960     1.08700
C1342       C  0.67789298  0.80932952  0.81430437     1.08800
C1343       C  0.83322845  0.69689166  0.81583018     1.08700
O1344       O  0.80729756  0.72046009  0.67253657    -0.80900
O1345       O  0.70126021  0.79062995  0.66867987    -0.81000
O1346       O  0.79326882  0.81756360  0.69515229    -0.80900
O1347       O  0.71158632  0.65388037  0.72380406    -0.80900
O1348       O  0.70101467  0.70587969  0.66714706    -0.81000
O1349       O  0.85750503  0.78474585  0.71016095    -0.80900
O1350       O  0.79993582  0.66313484  0.72193029    -0.80900
O1351       O  0.71057043  0.84187874  0.72393743    -0.80900
Co1352     Co  0.80744950  0.75850660  0.73498771     1.51500
Co1353     Co  0.68342795  0.74850626  0.71996980     1.51700
Co1354     Co  0.75665021  0.80587448  0.76201484     1.51600
Co1355     Co  0.75384690  0.68291304  0.77426834     1.51500
O1356       O  0.74532418  0.74362488  0.74714174    -1.42800
C1357       C  0.81522927  0.68052177  0.68102419     1.08700
C1358       C  0.69368209  0.82923716  0.68163280     1.08800
C1359       C  0.83465815  0.81454375  0.68736457     1.08700
C1360       C  0.69644038  0.66752876  0.67959206     1.08700
C1361       C  0.63255170  0.62288214  0.67577421    -0.22500
C1362       C  0.66454685  0.64375103  0.64834894    -0.07600
C1363       C  0.65972619  0.64928534  0.59309884     0.13200
C1364       C  0.62340783  0.63349594  0.56700361    -0.21100
C1365       C  0.59173210  0.61216151  0.59439038    -0.07600
C1366       C  0.59617802  0.60721378  0.64970923     0.13200
C1367       C  0.56217950  0.58647586  0.68192014    -0.24500
H1368       H  0.63523527  0.62012600  0.71819745     0.14500
H1369       H  0.62065560  0.63632165  0.52457825     0.14500
C1370       C  0.69331568  0.67064680  0.56093537    -0.24400
H1371       H  0.56898867  0.58925296  0.72477016     0.04700
H1372       H  0.56141922  0.55149951  0.67269679     0.08000
H1373       H  0.52979737  0.60261851  0.67385131     0.08000
H1374       H  0.72571614  0.65416379  0.56775129     0.08000
H1375       H  0.69440152  0.70536957  0.57137132     0.08000
H1376       H  0.68579665  0.66898496  0.51816345     0.04700
C1377       C  0.64965126  0.59981897  0.91135546    -0.21100
C1378       C  0.60732407  0.59019790  0.89711753    -0.07600
C1379       C  0.58637186  0.61415254  0.85515950     0.13200
C1380       C  0.60824370  0.64661755  0.82971644    -0.21100
C1381       C  0.65027916  0.65675719  0.84454791    -0.07600
C1382       C  0.67143318  0.63246205  0.88611773     0.13200
C1383       C  0.71717599  0.63966908  0.90461581    -0.24500
H1384       H  0.66576326  0.58199027  0.94324781     0.14500
H1385       H  0.59213207  0.66443959  0.79783027     0.14500
C1386       C  0.54049478  0.60721096  0.83699080    -0.24400
H1387       H  0.72755038  0.61791257  0.93754788     0.04700
H1388       H  0.71946562  0.67334327  0.91915836     0.08000
H1389       H  0.74021357  0.63287731  0.87197837     0.08000
H1390       H  0.51759463  0.61504068  0.86947765     0.08000
H1391       H  0.53771747  0.57329913  0.82352475     0.08000
H1392       H  0.53033117  0.62844246  0.80348363     0.04700
C1393       C  0.61041292  0.91795957  0.64074093    -0.21100
C1394       C  0.59039058  0.89837921  0.59729518    -0.07600
C1395       C  0.60502711  0.85624472  0.58172431     0.13200
C1396       C  0.63970588  0.83564728  0.60920147    -0.21100
C1397       C  0.66018003  0.85549049  0.65215925    -0.07600
C1398       C  0.64504564  0.89734103  0.66825631     0.13200
C1399       C  0.66481661  0.92097532  0.71397844    -0.24500
H1400       H  0.59941356  0.95020511  0.65303110     0.14500
H1401       H  0.65064009  0.80336354  0.59697626     0.14500
C1402       C  0.58489081  0.83239488  0.53640767    -0.24400
H1403       H  0.64943091  0.95392174  0.71939692     0.04700
H1404       H  0.69990276  0.92449808  0.70707080     0.08000
H1405       H  0.66033634  0.90314474  0.75107361     0.08000
H1406       H  0.59087905  0.84691200  0.99998261     0.08000
H1407       H  0.54972311  0.82951470  0.54331451     0.08000
H1408       H  0.59971661  0.79915285  0.53167202     0.04700
C1409       C  0.90293237  0.64618818  0.58068064    -0.21100
C1410       C  0.91577017  0.60433116  0.59833941    -0.07600
C1411       C  0.89546878  0.58840135  0.64356860     0.13200
C1412       C  0.86151225  0.61327646  0.66704397    -0.21100
C1413       C  0.84792732  0.65477056  0.64882893    -0.07600
C1414       C  0.86960604  0.67155617  0.60500049     0.13200
C1415       C  0.85801207  0.71578455  0.58268726    -0.24500
H1416       H  0.91832579  0.65900273  0.54640335     0.14500
H1417       H  0.84621770  0.60030970  0.70128024     0.14500
C1418       C  0.90929967  0.54562087  0.66845410    -0.24400
H1419       H  0.87697420  0.72231834  0.54693467     0.04700
H1420       H  0.86523183  0.74112242  0.61205144     0.08000
H1421       H  0.82312139  0.71835003  0.57138880     0.08000
H1422       H  0.94467260  0.54449805  0.67732158     0.08000
H1423       H  0.90139178  0.51854385  0.64191571     0.08000
H1424       H  0.89236497  0.54059664  0.70612018     0.04700
C1425       C  0.86851713  0.83370746  0.87901936    -0.21100
C1426       C  0.84113370  0.85946925  0.84598583    -0.07600
C1427       C  0.84666199  0.90459621  0.84417048     0.13200
C1428       C  0.88022270  0.92204002  0.87378790    -0.21100
C1429       C  0.90822964  0.89609897  0.90590227    -0.07600
C1430       C  0.90172820  0.85122235  0.90910743     0.13200
C1431       C  0.92872040  0.82137213  0.94472414    -0.24500
H1432       H  0.86413618  0.79925345  0.88116525     0.14500
H1433       H  0.88454683  0.95649286  0.87176625     0.14500
C1434       C  0.81811115  0.93484997  0.81080813    -0.24400
H1435       H  0.91769415  0.78781177  0.94345421     0.04700
H1436       H  0.92622394  0.83290200  0.98612088     0.08000
H1437       H  0.96309998  0.81998552  0.93218375     0.08000
H1438       H  0.78392585  0.93411821  0.82381107     0.08000
H1439       H  0.82060556  0.92530905  0.76871646     0.08000
H1440       H  0.82764458  0.96885097  0.81420166     0.04700
C1441       C  0.91505466  0.60586354  0.85651187    -0.21100
C1442       C  0.89592691  0.59055852  0.90257276    -0.07600
C1443       C  0.85710361  0.61175798  0.92044823     0.13200
C1444       C  0.83940265  0.64766654  0.89264034    -0.21100
C1445       C  0.85858383  0.66310301  0.84668392    -0.07600
C1446       C  0.89746107  0.64194595  0.82886286     0.13200
C1447       C  0.92105283  0.65701298  0.78128222    -0.24500
H1448       H  0.94477738  0.58983686  0.84219301     0.14500
H1449       H  0.80973637  0.66367128  0.90698954     0.14500
C1450       C  0.83381281  0.59716605  0.96855060    -0.24400
H1451       H  0.95105605  0.63667710  0.77347291     0.04700
H1452       H  0.93041166  0.69077090  0.78750366     0.08000
H1453       H  0.90010760  0.65533939  0.74585736     0.08000
H1454       H  0.85473174  0.59999337  0.00394019     0.08000
H1455       H  0.82495858  0.56312668  0.96331894     0.08000
H1456       H  0.80350594  0.61713780  0.97585015     0.04700
C1457       C  0.64021965  0.89177750  0.91968098    -0.21100
C1458       C  0.60046566  0.90848913  0.89822622    -0.07600
C1459       C  0.58583534  0.89092175  0.84995260     0.13200
C1460       C  0.61117641  0.85776006  0.82505865    -0.21100
C1461       C  0.65104764  0.84119435  0.84650555    -0.07600
C1462       C  0.66552885  0.85869895  0.89486078     0.13200
C1463       C  0.70730446  0.84278582  0.92146181    -0.24500
H1464       H  0.65157601  0.90416982  0.95695533     0.14500
H1465       H  0.59993219  0.84533969  0.78772897     0.14500
C1466       C  0.54397359  0.90691804  0.82365066    -0.24400
H1467       H  0.71160027  0.85797375  0.96075341     0.04700
H1468       H  0.73547736  0.85096854  0.89737187     0.08000
H1469       H  0.70733641  0.80728350  0.92729413     0.08000
H1470       H  0.54416623  0.94235289  0.81735175     0.08000
H1471       H  0.51594177  0.89925295  0.84827835     0.08000
H1472       H  0.53927379  0.89138390  0.78462475     0.04700
C1473       C  0.85561088  0.89768184  0.58136038    -0.21100
C1474       C  0.89735929  0.90972209  0.59586060    -0.07600
C1475       C  0.91822684  0.89002976  0.64018040     0.13200
C1476       C  0.89707560  0.85848000  0.66808258    -0.21100
C1477       C  0.85541306  0.84627102  0.65353982    -0.07600
C1478       C  0.83424109  0.86642908  0.60962096     0.13200
C1479       C  0.78970814  0.85467192  0.59132231    -0.24500
H1480       H  0.83982709  0.91233895  0.54700546     0.14500
H1481       H  0.91292762  0.84382957  0.70238256     0.14500
C1482       C  0.96208995  0.90291713  0.65957086    -0.24400
H1483       H  0.77974309  0.87137886  0.55416172     0.04700
H1484       H  0.76530339  0.86445474  0.62142271     0.08000
H1485       H  0.78944040  0.81930941  0.58404736     0.08000
H1486       H  0.96145264  0.93841108  0.66626273     0.08000
H1487       H  0.98732501  0.89328540  0.63044268     0.08000
H1488       H  0.97157846  0.88688216  0.69730256     0.04700
loop_ 
_geom_bond_atom_site_label_1 
_geom_bond_atom_site_label_2 
_geom_bond_distance 
_geom_bond_site_symmetry_2 
_ccdc_geom_bond_type 
O1            C9   1.270       .  A
O1          Co21   1.902       .  S
O2           C10   1.247       .  A
O2         Co208   1.938       .  S
O3           C11   1.260       .  A
O3         Co767   2.007   1_454  S
O4           C12   1.280       .  A
O4         Co210   2.029   1_554  S
O5           C11   1.251       .  A
O5         Co580   1.956       .  S
O6           C12   1.268       .  A
O6         Co393   1.972   1_545  S
O7           C10   1.278       .  A
O7         Co954   2.061   1_554  S
O8            C9   1.295       .  A
O8          Co23   2.102   1_554  S
C9          C172   1.494       .  S
C10          C63   1.486       .  S
C11          C92   1.482       .  S
C12         C108   1.500       .  S
O13          C26   1.264       .  A
O13        Co579   2.023   1_545  S
O14          C27   1.278       .  A
O14        Co394   2.025       .  S
O15          C28   1.268       .  A
O15        Co209   1.893       .  S
O16          C29   1.244       .  A
O16        Co768   1.937       .  S
O17          C29   1.278       .  A
O17         Co22   2.061       .  S
O18          C28   1.294       .  A
O18        Co207   2.089       .  S
O19          C26   1.249       .  A
O19         Co24   1.952       .  S
O20          C27   1.271       .  A
O20        Co953   1.977   1_455  S
Co21        O378   1.973       .  S
Co21        O571   2.026   1_554  S
Co21        O204   2.096   1_554  S
Co21         O25   2.016   1_554  S
Co22        O188   1.941       .  S
Co22        O563   1.954   1_545  S
Co22        O386   2.023   1_545  S
Co22       O1327   2.020       .  S
Co23        O747   2.009   1_556  S
Co23        O201   1.890       .  S
Co23        O950   1.977       .  S
Co23         O25   2.014       .  S
Co24        O190   2.029       .  S
Co24        O937   2.058       .  S
Co24        O760   1.942       .  S
Co24        O583   2.009       .  S
O25       Co1324   2.017   1_556  S
O25        Co582   2.010       .  S
C26         C140   1.488       .  S
C27         C156   1.493       .  S
C28         C127   1.483       .  S
C29          C76   1.497       .  S
O30          C38   1.294       .  A
O30         Co50   2.092       .  S
O31          C39   1.277       .  A
O31         Co51   2.058       .  S
O32          C40   1.271       .  A
O32         Co52   1.976       .  S
O33          C41   1.249       .  A
O33         Co53   1.953       .  S
O34          C40   1.279       .  A
O34         Co51   2.028       .  S
O35          C41   1.265       .  A
O35         Co50   2.024       .  S
O36          C39   1.245       .  A
O36         Co53   1.940       .  S
O37          C38   1.266       .  A
O37         Co52   1.896       .  S
C38         C124   1.483       .  S
C39          C79   1.497       .  S
C40         C159   1.494       .  S
C41         C143   1.488       .  S
O42          C55   1.269       .  A
O42         Co50   1.971       .  S
O43          C56   1.250       .  A
O43         Co51   1.954       .  S
O44          C57   1.295       .  A
O44         Co52   2.103       .  S
O45          C58   1.278       .  A
O45         Co53   2.056       .  S
O46          C58   1.250       .  A
O46         Co51   1.943       .  S
O47          C57   1.270       .  A
O47         Co50   1.900       .  S
O48          C55   1.279       .  A
O48         Co53   2.032       .  S
O49          C56   1.259       .  A
O49         Co52   2.002       .  S
Co50         O54   2.016       .  S
Co51         O54   2.022       .  S
Co52         O54   2.012       .  S
Co53         O54   2.008       .  S
C55         C111   1.502       .  S
C56          C95   1.480       .  S
C57         C175   1.495       .  S
C58          C60   1.484       .  S
C59          C60   1.402       .  A
C59          C64   1.405       .  A
C59          H66   1.083       .  S
C60          C61   1.420       .  A
C61          C62   1.408       .  A
C61          C68   1.510       .  S
C62          C63   1.404       .  A
C62          H67   1.084       .  S
C63          C64   1.421       .  A
C64          C65   1.510       .  S
C65          H69   1.111       .  S
C65          H70   1.109       .  S
C65          H71   1.110       .  S
C68          H72   1.111       .  S
C68          H73   1.108       .  S
C68          H74   1.110       .  S
C75          C76   1.398       .  A
C75          C80   1.405       .  A
C75          H82   1.084       .  S
C76          C77   1.431       .  A
C77          C78   1.406       .  A
C77          C84   1.510       .  S
C78          C79   1.399       .  A
C78          H83   1.084       .  S
C79          C80   1.430       .  A
C80          C81   1.510       .  S
C81          H85   1.110       .  S
C81          H86   1.111       .  S
C81          H87   1.110       .  S
C84          H88   1.111       .  S
C84          H89   1.110       .  S
C84          H90   1.110       .  S
C91          C92   1.409       .  A
C91          C96   1.398       .  A
C91          H98   1.083       .  S
C92          C93   1.414       .  A
C93          C94   1.399       .  A
C93         C100   1.509       .  S
C94          C95   1.409       .  A
C94          H99   1.084       .  S
C95          C96   1.413       .  A
C96          C97   1.510       .  S
C97         H101   1.111       .  S
C97         H102   1.110       .  S
C97         H103   1.108       .  S
C100        H105   1.110       .  S
C100        H106   1.111       .  S
C100        H290   1.109       .  S
H104        C286   1.107       .  S
C107        C108   1.409       .  A
C107        C112   1.406       .  A
C107        H114   1.083       .  S
C108        C109   1.419       .  A
C109        C110   1.409       .  A
C109        C116   1.509       .  S
C110        C111   1.411       .  A
C110        H115   1.083       .  S
C111        C112   1.419       .  A
C112        C113   1.509       .  S
C113        H117   1.111       .  S
C113        H118   1.109       .  S
C113        H119   1.111       .  S
C116        H120   1.111       .  S
C116        H121   1.109       .  S
C116        H122   1.111       .  S
C123        C124   1.407       .  A
C123        C128   1.402       .  A
C123        H130   1.084       .  S
C124        C125   1.415       .  A
C125        C126   1.404       .  A
C125        C132   1.509       .  S
C126        C127   1.408       .  A
C126        H131   1.084       .  S
C127        C128   1.414       .  A
C128        C129   1.508       .  S
C129        H133   1.111       .  S
C129        H134   1.109       .  S
C129        H135   1.109       .  S
C132        H136   1.110       .  S
C132        H137   1.110       .  S
C132        H138   1.111       .  S
C139        C140   1.411       .  A
C139        C144   1.401       .  A
C139        H146   1.083       .  S
C140        C141   1.414       .  A
C141        C142   1.403       .  A
C141        C148   1.508       .  S
C142        C143   1.412       .  A
C142        H147   1.084       .  S
C143        C144   1.413       .  A
C144        C145   1.508       .  S
C145        H149   1.110       .  S
C145        H150   1.110       .  S
C145        H151   1.106       .  S
C148        H152   1.105       .  S
C148        H153   1.110       .  S
C148        H154   1.111       .  S
C155        C156   1.411       .  A
C155        C160   1.407       .  A
C155        H162   1.081       .  S
C156        C157   1.414       .  A
C157        C158   1.407       .  A
C157        C164   1.508       .  S
C158        C159   1.411       .  A
C158        H163   1.082       .  S
C159        C160   1.414       .  A
C160        C161   1.508       .  S
C161        H165   1.111       .  S
C161        H166   1.109       .  S
C161        H167   1.111       .  S
C164        H168   1.111       .  S
C164        H169   1.109       .  S
C164        H170   1.111       .  S
C171        C172   1.406       .  A
C171        C176   1.408       .  A
C171        H178   1.084       .  S
C172        C173   1.419       .  A
C173        C174   1.406       .  A
C173        C180   1.508       .  S
C174        C175   1.406       .  A
C174        H179   1.084       .  S
C175        C176   1.420       .  A
C176        C177   1.509       .  S
C177        H181   1.111       .  S
C177        H182   1.109       .  S
C177        H183   1.111       .  S
C180        H184   1.111       .  S
C180        H185   1.109       .  S
C180        H186   1.111       .  S
O187        C195   1.270       .  A
O187       Co207   1.905       .  S
O188        C196   1.249       .  A
O189        C197   1.259       .  A
O189       Co953   2.007   1_455  S
O190        C198   1.280       .  A
O191        C197   1.249       .  A
O191       Co394   1.954       .  S
O192        C198   1.270       .  A
O192       Co579   1.975   1_545  S
O193        C196   1.278       .  A
O193       Co768   2.062       .  S
O194        C195   1.293       .  A
O194       Co209   2.102       .  S
C195        C358   1.500       .  S
C196        C249   1.487       .  S
C197        C278   1.480       .  S
C198        C294   1.499       .  S
O199        C212   1.264       .  A
O199       Co393   2.027   1_546  S
O200        C213   1.279       .  A
O200       Co580   2.025   1_556  S
O201        C214   1.267       .  A
O202        C215   1.244       .  A
O202       Co954   1.937       .  S
O203        C215   1.278       .  A
O203       Co208   2.058   1_556  S
O204        C214   1.295       .  A
O205        C212   1.249       .  A
O205       Co210   1.953       .  S
O206        C213   1.270       .  A
O206       Co767   1.974   1_455  S
Co207       O564   1.966       .  S
Co207       O385   2.031       .  S
Co207       O211   2.016       .  S
Co208       O377   1.952   1_545  S
Co208       O572   2.023   1_544  S
Co208      O1141   2.015   1_554  S
Co209       O933   2.006       .  S
Co209       O764   1.980       .  S
Co209       O211   2.011       .  S
Co210       O751   2.061   1_556  S
Co210       O946   1.939       .  S
Co210       O397   2.008       .  S
O211      Co1138   2.013       .  S
O211       Co396   2.011       .  S
C212        C326   1.492       .  S
C213        C342   1.498       .  S
C214        C313   1.476       .  S
C215        C262   1.495       .  S
O216        C224   1.294       .  A
O216       Co236   2.092       .  S
O217        C225   1.277       .  A
O217       Co237   2.053       .  S
O218        C226   1.269       .  A
O218       Co238   1.973       .  S
O219        C227   1.249       .  A
O219       Co239   1.956       .  S
O220        C226   1.279       .  A
O220       Co237   2.033       .  S
O221        C227   1.265       .  A
O221       Co236   2.025       .  S
O222        C225   1.245       .  A
O222       Co239   1.939       .  S
O223        C224   1.266       .  A
O223       Co238   1.889       .  S
C224        C310   1.475       .  S
C225        C265   1.493       .  S
C226        C345   1.500       .  S
C227        C329   1.491       .  S
O228        C241   1.270       .  A
O228       Co236   1.970       .  S
O229        C242   1.249       .  A
O229       Co237   1.951       .  S
O230        C243   1.293       .  A
O230       Co238   2.096       .  S
O231        C244   1.278       .  A
O231       Co239   2.058       .  S
O232        C244   1.250       .  A
O232       Co237   1.946       .  S
O233        C243   1.271       .  A
O233       Co236   1.908       .  S
O234        C241   1.281       .  A
O234       Co239   2.032       .  S
O235        C242   1.259       .  A
O235       Co238   2.003       .  S
Co236       O240   2.017       .  S
Co237       O240   2.023       .  S
Co238       O240   2.011       .  S
Co239       O240   2.006       .  S
C241        C297   1.499       .  S
C242        C281   1.477       .  S
C243        C361   1.500       .  S
C244        C246   1.487       .  S
C245        C246   1.403       .  A
C245        C250   1.407       .  A
C245        H252   1.083       .  S
C246        C247   1.419       .  A
C247        C248   1.408       .  A
C247        C254   1.509       .  S
C248        C249   1.404       .  A
C248        H253   1.083       .  S
C249        C250   1.420       .  A
C250        C251   1.509       .  S
C251        H255   1.110       .  S
C251        H256   1.109       .  S
C251        H257   1.111       .  S
C254        H258   1.111       .  S
C254        H259   1.108       .  S
C254        H260   1.110       .  S
C261        C262   1.398       .  A
C261        C266   1.403       .  A
C261        H268   1.084       .  S
C262        C263   1.430       .  A
C263        C264   1.404       .  A
C263        C270   1.510       .  S
C264        C265   1.398       .  A
C264        H269   1.085       .  S
C265        C266   1.430       .  A
C266        C267   1.511       .  S
C267        H271   1.110       .  S
C267        H272   1.110       .  S
C267        H273   1.110       .  S
C270        H274   1.110       .  S
C270        H275   1.110       .  S
C270        H276   1.111       .  S
C277        C278   1.410       .  A
C277        C282   1.398       .  A
C277        H284   1.084       .  S
C278        C279   1.413       .  A
C279        C280   1.397       .  A
C279        C286   1.510       .  S
C280        C281   1.409       .  A
C280        H285   1.084       .  S
C281        C282   1.413       .  A
C282        C283   1.510       .  S
C283        H287   1.111       .  S
C283        H288   1.110       .  S
C283        H289   1.109       .  S
C286        H291   1.110       .  S
C286        H292   1.111       .  S
C293        C294   1.410       .  A
C293        C298   1.407       .  A
C293        H300   1.084       .  S
C294        C295   1.417       .  A
C295        C296   1.407       .  A
C295        C302   1.509       .  S
C296        C297   1.410       .  A
C296        H301   1.084       .  S
C297        C298   1.418       .  A
C298        C299   1.509       .  S
C299        H303   1.111       .  S
C299        H304   1.109       .  S
C299        H305   1.111       .  S
C302        H306   1.111       .  S
C302        H307   1.109       .  S
C302        H308   1.111       .  S
C309        C310   1.403       .  A
C309        C314   1.401       .  A
C309        H316   1.085       .  S
C310        C311   1.416       .  A
C311        C312   1.401       .  A
C311        C318   1.509       .  S
C312        C313   1.403       .  A
C312        H317   1.085       .  S
C313        C314   1.416       .  A
C314        C315   1.509       .  S
C315        H319   1.111       .  S
C315        H320   1.111   1_556  S
C315        H321   1.109       .  S
C318        H322   1.110       .  S
C318        H323   1.111       .  S
C318        H324   1.111       .  S
C325        C326   1.412       .  A
C325        C330   1.403       .  A
C325        H332   1.083       .  S
C326        C327   1.414       .  A
C327        C328   1.404       .  A
C327        C334   1.508       .  S
C328        C329   1.412       .  A
C328        H333   1.083       .  S
C329        C330   1.413       .  A
C330        C331   1.508       .  S
C331        H335   1.110       .  S
C331        H336   1.110       .  S
C331        H337   1.104       .  S
C334        H338   1.106   1_556  S
C334        H339   1.110       .  S
C334        H340   1.111       .  S
C341        C342   1.410       .  A
C341        C346   1.407       .  A
C341        H348   1.083       .  S
C342        C343   1.417       .  A
C343        C344   1.409       .  A
C343        C350   1.509       .  S
C344        C345   1.412       .  A
C344        H349   1.083       .  S
C345        C346   1.417       .  A
C346        C347   1.509       .  S
C347        H351   1.111       .  S
C347        H352   1.110       .  S
C347        H353   1.111       .  S
C350        H354   1.111       .  S
C350        H355   1.110       .  S
C350        H356   1.111       .  S
C357        C358   1.405       .  A
C357        C362   1.407       .  A
C357        H364   1.084       .  S
C358        C359   1.422       .  A
C359        C360   1.409       .  A
C359        C366   1.508       .  S
C360        C361   1.406       .  A
C360        H365   1.084       .  S
C361        C362   1.423       .  A
C362        C363   1.508       .  S
C363        H367   1.111       .  S
C363        H368   1.109       .  S
C363        H369   1.110       .  S
C366        H370   1.111       .  S
C366        H371   1.108       .  S
C366        H372   1.111       .  S
O373        C381   1.270       .  A
O373       Co393   1.900       .  S
O374        C382   1.251       .  A
O374       Co580   1.946       .  S
O375        C383   1.261       .  A
O375      Co1139   2.012   1_454  S
O376        C384   1.280       .  A
O376       Co582   2.033   1_554  S
O377        C383   1.249       .  A
O378        C384   1.269       .  A
O379        C382   1.277       .  A
O379      Co1326   2.055   1_554  S
O380        C381   1.291       .  A
O380       Co395   2.092   1_554  S
C381        C544   1.494       .  S
C382        C435   1.484       .  S
C383        C464   1.482       .  S
C384        C480   1.500       .  S
O385        C398   1.265       .  A
O386        C399   1.278       .  A
O387        C400   1.266       .  A
O387       Co581   1.891       .  S
O388        C401   1.245       .  A
O388      Co1140   1.938       .  S
O389        C401   1.279       .  A
O389       Co394   2.059       .  S
O390        C400   1.296       .  A
O390       Co579   2.100       .  S
O391        C398   1.248       .  A
O391       Co396   1.950       .  S
O392        C399   1.268       .  A
O392      Co1325   1.972   1_455  S
Co393       O576   2.097   1_554  S
Co393       O397   2.017   1_564  S
Co394       O560   1.941       .  S
Co394       O955   2.018       .  S
Co395      O1119   2.007   1_556  S
Co395       O573   1.889       .  S
Co395      O1322   1.974       .  S
Co395       O397   2.013   1_565  S
Co396       O562   2.030       .  S
Co396      O1309   2.047       .  S
Co396      O1132   1.941       .  S
O397       Co952   2.011   1_556  S
C398        C512   1.491       .  S
C399        C528   1.498       .  S
C400        C499   1.478       .  S
C401        C448   1.497       .  S
O402        C410   1.295       .  A
O402       Co422   2.099       .  S
O403        C411   1.278       .  A
O403       Co423   2.058       .  S
O404        C412   1.269       .  A
O404       Co424   1.971       .  S
O405        C413   1.249       .  A
O405       Co425   1.955       .  S
O406        C412   1.278       .  A
O406       Co423   2.027       .  S
O407        C413   1.263       .  A
O407       Co422   2.020       .  S
O408        C411   1.246       .  A
O408       Co425   1.940       .  S
O409        C410   1.267       .  A
O409       Co424   1.894       .  S
C410        C496   1.479       .  S
C411        C451   1.497       .  S
C412        C531   1.499       .  S
C413        C515   1.487       .  S
O414        C427   1.269       .  A
O414       Co422   1.974       .  S
O415        C428   1.249       .  A
O415       Co423   1.952       .  S
O416        C429   1.292       .  A
O416       Co424   2.092       .  S
O417        C430   1.278       .  A
O417       Co425   2.058       .  S
O418        C430   1.248       .  A
O418       Co423   1.942       .  S
O419        C429   1.270       .  A
O419       Co422   1.897       .  S
O420        C427   1.280       .  A
O420       Co425   2.033       .  S
O421        C428   1.261       .  A
O421       Co424   2.009       .  S
Co422       O426   2.016       .  S
Co423       O426   2.019       .  S
Co424       O426   2.008       .  S
Co425       O426   2.007       .  S
C427        C483   1.500       .  S
C428        C467   1.482       .  S
C429        C547   1.493       .  S
C430        C432   1.484       .  S
C431        C432   1.404       .  A
C431        C436   1.407       .  A
C431        H438   1.085       .  S
C432        C433   1.420       .  A
C433        C434   1.406       .  A
C433        C440   1.510       .  S
C434        C435   1.403       .  A
C434        H439   1.085       .  S
C435        C436   1.418       .  A
C436        C437   1.509       .  S
C437        H441   1.110       .  S
C437        H442   1.108       .  S
C437        H443   1.111       .  S
C440        H444   1.110       .  S
C440        H445   1.109       .  S
C440        H446   1.111       .  S
C447        C448   1.398       .  A
C447        C452   1.404       .  A
C447        H454   1.084       .  S
C448        C449   1.431       .  A
C449        C450   1.406       .  A
C449        C456   1.511       .  S
C450        C451   1.399       .  A
C450        H455   1.085       .  S
C451        C452   1.430       .  A
C452        C453   1.510       .  S
C453        H457   1.111       .  S
C453        H458   1.111       .  S
C453        H459   1.109       .  S
C456        H460   1.110       .  S
C456        H461   1.110       .  S
C456        H462   1.111       .  S
C463        C464   1.410       .  A
C463        C468   1.399       .  A
C463        H470   1.084       .  S
C464        C465   1.413       .  A
C465        C466   1.400       .  A
C465        C472   1.509       .  S
C466        C467   1.410       .  A
C466        H471   1.084       .  S
C467        C468   1.413       .  A
C468        C469   1.509       .  S
C469        H473   1.111       .  S
C469        H474   1.110       .  S
C469        H475   1.108       .  S
C472        H662   1.109   1_554  S
C472        H477   1.110       .  S
C472        H478   1.111       .  S
H476        C658   1.108       .  S
C479        C480   1.410       .  A
C479        C484   1.408       .  A
C479        H486   1.084       .  S
C480        C481   1.418       .  A
C481        C482   1.408       .  A
C481        C488   1.509       .  S
C482        C483   1.410       .  A
C482        H487   1.084       .  S
C483        C484   1.417       .  A
C484        C485   1.509       .  S
C485        H489   1.111       .  S
C485        H490   1.109       .  S
C485        H491   1.111       .  S
C488        H492   1.110       .  S
C488        H493   1.109       .  S
C488        H494   1.111       .  S
C495        C496   1.404       .  A
C495        C500   1.404       .  A
C495        H502   1.085       .  S
C496        C497   1.416       .  A
C497        C498   1.402       .  A
C497        C504   1.508       .  S
C498        C499   1.402       .  A
C498        H503   1.085       .  S
C499        C500   1.417       .  A
C500        C501   1.509       .  S
C501        H505   1.111       .  S
C501        H506   1.110       .  S
C501        H507   1.110       .  S
C504        H508   1.109       .  S
C504        H509   1.110       .  S
C504        H510   1.111       .  S
C511        C512   1.412       .  A
C511        C516   1.402       .  A
C511        H518   1.084       .  S
C512        C513   1.414       .  A
C513        C514   1.403       .  A
C513        C520   1.508       .  S
C514        C515   1.411       .  A
C514        H519   1.084       .  S
C515        C516   1.412       .  A
C516        C517   1.509       .  S
C517        H521   1.110       .  S
C517        H522   1.110       .  S
C517        H523   1.105       .  S
C520        H524   1.107       .  S
C520        H525   1.110       .  S
C520        H526   1.111       .  S
C527        C528   1.410       .  A
C527        C532   1.405       .  A
C527        H534   1.081       .  S
C528        C529   1.418       .  A
C529        C530   1.408       .  A
C529        C536   1.509       .  S
C530        C531   1.412       .  A
C530        H535   1.082       .  S
C531        C532   1.418       .  A
C532        C533   1.509       .  S
C533        H537   1.111       .  S
C533        H538   1.110       .  S
C533        H539   1.111       .  S
C536        H540   1.110       .  S
C536        H541   1.110       .  S
C536        H542   1.111       .  S
C543        C544   1.404       .  A
C543        C548   1.404       .  A
C543        H550   1.083       .  S
C544        C545   1.423       .  A
C545        C546   1.404       .  A
C545        C552   1.508       .  S
C546        C547   1.404       .  A
C546        H551   1.083       .  S
C547        C548   1.422       .  A
C548        C549   1.509       .  S
C549        H553   1.111       .  S
C549        H554   1.109       .  S
C549        H555   1.110       .  S
C552        H556   1.110       .  S
C552        H557   1.109       .  S
C552        H558   1.111       .  S
O559        C567   1.271       .  A
O559       Co579   1.903       .  S
O560        C568   1.249       .  A
O561        C569   1.259       .  A
O561      Co1325   2.004   1_455  S
O562        C570   1.280       .  A
O563        C569   1.250       .  A
O564        C570   1.267       .  A
O565        C568   1.277       .  A
O565      Co1140   2.058       .  S
O566        C567   1.292       .  A
O566       Co581   2.093       .  S
C567        C730   1.496       .  S
C568        C621   1.482       .  S
C569        C650   1.479       .  S
C570        C666   1.497       .  S
O571        C584   1.265       .  A
O572        C585   1.278       .  A
O573        C586   1.266       .  A
O574        C587   1.245       .  A
O574      Co1326   1.939       .  S
O575        C587   1.278       .  A
O575       Co580   2.058   1_556  S
O576        C586   1.296       .  A
O577        C584   1.249       .  A
O577       Co582   1.954       .  S
O578        C585   1.269       .  A
O578      Co1139   1.973   1_455  S
Co579       O583   2.018   1_565  S
Co580       O769   2.021       .  S
Co581      O1305   2.002       .  S
Co581      O1136   1.973       .  S
Co581       O583   2.011   1_565  S
Co582      O1123   2.059   1_556  S
Co582      O1318   1.941       .  S
O583       Co766   2.013       .  S
C584        C698   1.490       .  S
C585        C714   1.500       .  S
C586        C685   1.479       .  S
C587        C634   1.497       .  S
O588        C596   1.294       .  A
O588       Co608   2.090       .  S
O589        C597   1.278       .  A
O589       Co609   2.062       .  S
O590        C598   1.269       .  A
O590       Co610   1.971       .  S
O591        C599   1.248       .  A
O591       Co611   1.952       .  S
O592        C598   1.279       .  A
O592       Co609   2.025       .  S
O593        C599   1.264       .  A
O593       Co608   2.027       .  S
O594        C597   1.245       .  A
O594       Co611   1.939       .  S
O595        C596   1.266       .  A
O595       Co610   1.896       .  S
C596        C682   1.480       .  S
C597        C637   1.499       .  S
C598        C717   1.499       .  S
C599        C701   1.490       .  S
O600        C613   1.267       .  A
O600       Co608   1.968       .  S
O601        C614   1.249       .  A
O601       Co609   1.954       .  S
O602        C615   1.292       .  A
O602       Co610   2.093       .  S
O603        C616   1.277       .  A
O603       Co611   2.059       .  S
O604        C616   1.248       .  A
O604       Co609   1.940       .  S
O605        C615   1.270       .  A
O605       Co608   1.902       .  S
O606        C613   1.280       .  A
O606       Co611   2.027       .  S
O607        C614   1.258       .  A
O607       Co610   2.000       .  S
Co608       O612   2.020       .  S
Co609       O612   2.017       .  S
Co610       O612   2.012       .  S
Co611       O612   2.009       .  S
C613        C669   1.498       .  S
C614        C653   1.478       .  S
C615        C733   1.496       .  S
C616        C618   1.483       .  S
C617        C618   1.403       .  A
C617        C622   1.406       .  A
C617        H624   1.085       .  S
C618        C619   1.419       .  A
C619        C620   1.406       .  A
C619        C626   1.509       .  S
C620        C621   1.402       .  A
C620        H625   1.084       .  S
C621        C622   1.418       .  A
C622        C623   1.510       .  S
C623        H627   1.111       .  S
C623        H628   1.108       .  S
C623        H629   1.111       .  S
C626        H630   1.110       .  S
C626        H631   1.109       .  S
C626        H632   1.109       .  S
C633        C634   1.398       .  A
C633        C638   1.405       .  A
C633        H640   1.085       .  S
C634        C635   1.431       .  A
C635        C636   1.406       .  A
C635        C642   1.510       .  S
C636        C637   1.399       .  A
C636        H641   1.085       .  S
C637        C638   1.431       .  A
C638        C639   1.510       .  S
C639        H643   1.110       .  S
C639        H644   1.110       .  S
C639        H645   1.110       .  S
C642        H646   1.110       .  S
C642        H647   1.110       .  S
C642        H648   1.110       .  S
C649        C650   1.408       .  A
C649        C654   1.397       .  A
C649        H656   1.084       .  S
C650        C651   1.414       .  A
C651        C652   1.398       .  A
C651        C658   1.509       .  S
C652        C653   1.409       .  A
C652        H657   1.084       .  S
C653        C654   1.414       .  A
C654        C655   1.510       .  S
C655        H659   1.111       .  S
C655        H660   1.110       .  S
C655        H661   1.108       .  S
C658        H663   1.110       .  S
C658        H664   1.111       .  S
C665        C666   1.409       .  A
C665        C670   1.406       .  A
C665        H672   1.083       .  S
C666        C667   1.420       .  A
C667        C668   1.404       .  A
C667        C674   1.510       .  S
C668        C669   1.409       .  A
C668        H673   1.083       .  S
C669        C670   1.421       .  A
C670        C671   1.509       .  S
C671        H675   1.111       .  S
C671        H676   1.108       .  S
C671        H677   1.110       .  S
C674        H678   1.111       .  S
C674        H679   1.108       .  S
C674        H680   1.111       .  S
C681        C682   1.403       .  A
C681        C686   1.402       .  A
C681        H688   1.084       .  S
C682        C683   1.417       .  A
C683        C684   1.403       .  A
C683        C690   1.509       .  S
C684        C685   1.403       .  A
C684        H689   1.085       .  S
C685        C686   1.417       .  A
C686        C687   1.509       .  S
C687        H691   1.111       .  S
C687        H692   1.111       .  S
C687        H693   1.110       .  S
C690        H694   1.109       .  S
C690        H695   1.111       .  S
C690        H696   1.111       .  S
C697        C698   1.412       .  A
C697        C702   1.403       .  A
C697        H704   1.083       .  S
C698        C699   1.413       .  A
C699        C700   1.403       .  A
C699        C706   1.508       .  S
C700        C701   1.412       .  A
C700        H705   1.084       .  S
C701        C702   1.414       .  A
C702        C703   1.508       .  S
C703        H707   1.111       .  S
C703        H708   1.110       .  S
C703        H709   1.106       .  S
C706        H710   1.104   1_556  S
C706        H711   1.110       .  S
C706        H712   1.110       .  S
C713        C714   1.411       .  A
C713        C718   1.405       .  A
C713        H720   1.082       .  S
C714        C715   1.419       .  A
C715        C716   1.407       .  A
C715        C722   1.509       .  S
C716        C717   1.411       .  A
C716        H721   1.082       .  S
C717        C718   1.418       .  A
C718        C719   1.509       .  S
C719        H723   1.110       .  S
C719        H724   1.109       .  S
C719        H725   1.111       .  S
C722        H726   1.110       .  S
C722        H727   1.109       .  S
C722        H728   1.111       .  S
C729        C730   1.405       .  A
C729        C734   1.406       .  A
C729        H736   1.084       .  S
C730        C731   1.423       .  A
C731        C732   1.405       .  A
C731        C738   1.509       .  S
C732        C733   1.405       .  A
C732        H737   1.084       .  S
C733        C734   1.422       .  A
C734        C735   1.509       .  S
C735        H739   1.111       .  S
C735        H740   1.109       .  S
C735        H741   1.111       .  S
C738        H742   1.110       .  S
C738        H743   1.109       .  S
C738        H744   1.111       .  S
O745        C753   1.270       .  A
O745       Co765   1.902       .  S
O746        C754   1.247       .  A
O746       Co952   1.938       .  S
O747        C755   1.261       .  A
O748        C756   1.280       .  A
O748       Co954   2.028   1_654  S
O749        C755   1.249       .  A
O749      Co1324   1.951       .  S
O750        C756   1.268       .  A
O750      Co1137   1.971   1_545  S
O751        C754   1.277       .  A
O752        C753   1.293       .  A
O752       Co767   2.094   1_554  S
C753        C916   1.483       .  S
C754        C807   1.488       .  S
C755        C836   1.481       .  S
C756        C852   1.500       .  S
O757        C770   1.262       .  A
O757      Co1323   2.022   1_545  S
O758        C771   1.277       .  A
O758      Co1138   2.021       .  S
O759        C772   1.267       .  A
O759       Co953   1.893       .  S
O760        C773   1.247       .  A
O761        C773   1.278       .  A
O761       Co766   2.055       .  S
O762        C772   1.294       .  A
O762       Co951   2.088       .  S
O763        C770   1.248       .  A
O763       Co768   1.954   1_655  S
O764        C771   1.272       .  A
Co765      O1122   1.967       .  S
Co765      O1315   2.027   1_554  S
Co765       O948   2.090   1_554  S
Co765       O769   2.019   1_655  S
Co766       O932   1.939       .  S
Co766      O1307   1.954   1_545  S
Co766      O1130   2.020   1_545  S
Co767       O945   1.896       .  S
Co767       O769   2.010   1_656  S
Co768       O934   2.028   1_455  S
Co768      O1327   2.006       .  S
O769      Co1326   2.005   1_554  S
C770        C884   1.488       .  S
C771        C900   1.495       .  S
C772        C871   1.475       .  S
C773        C820   1.498       .  S
O774        C782   1.294       .  A
O774       Co794   2.090       .  S
O775        C783   1.278       .  A
O775       Co795   2.057       .  S
O776        C784   1.271       .  A
O776       Co796   1.977       .  S
O777        C785   1.249       .  A
O777       Co797   1.953       .  S
O778        C784   1.280       .  A
O778       Co795   2.030       .  S
O779        C785   1.264       .  A
O779       Co794   2.026       .  S
O780        C783   1.245       .  A
O780       Co797   1.939       .  S
O781        C782   1.266       .  A
O781       Co796   1.895       .  S
C782        C868   1.477       .  S
C783        C823   1.498       .  S
C784        C903   1.497       .  S
C785        C887   1.489       .  S
O786        C799   1.267       .  A
O786       Co794   1.970       .  S
O787        C800   1.248       .  A
O787       Co795   1.953       .  S
O788        C801   1.292       .  A
O788       Co796   2.094       .  S
O789        C802   1.278       .  A
O789       Co797   2.057       .  S
O790        C802   1.247       .  A
O790       Co795   1.939       .  S
O791        C801   1.269       .  A
O791       Co794   1.900       .  S
O792        C799   1.279       .  A
O792       Co797   2.029       .  S
O793        C800   1.259       .  A
O793       Co796   2.006       .  S
Co794       O798   2.017       .  S
Co795       O798   2.015       .  S
Co796       O798   2.014       .  S
Co797       O798   2.012       .  S
C799        C855   1.500       .  S
C800        C839   1.480       .  S
C801        C919   1.483       .  S
C802        C804   1.486       .  S
C803        C804   1.401       .  A
C803        C808   1.405       .  A
C803        H810   1.086       .  S
C804        C805   1.423       .  A
C805        C806   1.407       .  A
C805        C812   1.510       .  S
C806        C807   1.403       .  A
C806        H811   1.085       .  S
C807        C808   1.422       .  A
C808        C809   1.510       .  S
C809        H813   1.110       .  S
C809        H814   1.109       .  S
C809        H815   1.111       .  S
C812        H816   1.110       .  S
C812        H817   1.109       .  S
C812        H818   1.110       .  S
C819        C820   1.400       .  A
C819        C824   1.405       .  A
C819        H826   1.084       .  S
C820        C821   1.429       .  A
C821        C822   1.405       .  A
C821        C828   1.509       .  S
C822        C823   1.400       .  A
C822        H827   1.084       .  S
C823        C824   1.430       .  A
C824        C825   1.510       .  S
C825        H829   1.111       .  S
C825        H830   1.110       .  S
C825        H831   1.110       .  S
C828        H832   1.109       .  S
C828        H833   1.110       .  S
C828        H834   1.111       .  S
C835        C836   1.410       .  A
C835        C840   1.398       .  A
C835        H842   1.083       .  S
C836        C837   1.413       .  A
C837        C838   1.399       .  A
C837        C844   1.509       .  S
C838        C839   1.410       .  A
C838        H843   1.083       .  S
C839        C840   1.412       .  A
C840        C841   1.510       .  S
C841        H845   1.111       .  S
C841        H846   1.111       .  S
C841        H847   1.109       .  S
C844       H1034   1.109       .  S
C844        H849   1.110       .  S
C844        H850   1.111       .  S
H848       C1030   1.108       .  S
C851        C852   1.410       .  A
C851        C856   1.406       .  A
C851        H858   1.083       .  S
C852        C853   1.420       .  A
C853        C854   1.407       .  A
C853        C860   1.509       .  S
C854        C855   1.410       .  A
C854        H859   1.083       .  S
C855        C856   1.420       .  A
C856        C857   1.510       .  S
C857        H861   1.111       .  S
C857        H862   1.109       .  S
C857        H863   1.111       .  S
C860        H864   1.111       .  S
C860        H865   1.109       .  S
C860        H866   1.111       .  S
C867        C868   1.404       .  A
C867        C872   1.402       .  A
C867        H874   1.084       .  S
C868        C869   1.416       .  A
C869        C870   1.401       .  A
C869        C876   1.509       .  S
C870        C871   1.402       .  A
C870        H875   1.085       .  S
C871        C872   1.416       .  A
C872        C873   1.509       .  S
C873        H877   1.111       .  S
C873        H878   1.110       .  S
C873        H879   1.109       .  S
C876        H880   1.109       .  S
C876        H881   1.110       .  S
C876        H882   1.111       .  S
C883        C884   1.411       .  A
C883        C888   1.402       .  A
C883        H890   1.085       .  S
C884        C885   1.414       .  A
C885        C886   1.402       .  A
C885        C892   1.508       .  S
C886        C887   1.411       .  A
C886        H891   1.084       .  S
C887        C888   1.414       .  A
C888        C889   1.508       .  S
C889        H893   1.111       .  S
C889        H894   1.110       .  S
C889        H895   1.105       .  S
C892        H896   1.107       .  S
C892        H897   1.110       .  S
C892        H898   1.111       .  S
C899        C900   1.412       .  A
C899        C904   1.408       .  A
C899        H906   1.082       .  S
C900        C901   1.413       .  A
C901        C902   1.408       .  A
C901        C908   1.508       .  S
C902        C903   1.412       .  A
C902        H907   1.082       .  S
C903        C904   1.415       .  A
C904        C905   1.508       .  S
C905        H909   1.111       .  S
C905        H910   1.110       .  S
C905        H911   1.110       .  S
C908        H912   1.111       .  S
C908        H913   1.108       .  S
C908        H914   1.111       .  S
C915        C916   1.405       .  A
C915        C920   1.406       .  A
C915        H922   1.084       .  S
C916        C917   1.416       .  A
C917        C918   1.403       .  A
C917        C924   1.508       .  S
C918        C919   1.403       .  A
C918        H923   1.084       .  S
C919        C920   1.417       .  A
C920        C921   1.508       .  S
C921        H925   1.111       .  S
C921        H926   1.108       .  S
C921        H927   1.111       .  S
C924        H928   1.111       .  S
C924        H929   1.108       .  S
C924        H930   1.111       .  S
O931        C939   1.269       .  A
O931       Co951   1.906       .  S
O932        C940   1.249       .  A
O933        C941   1.261       .  A
O934        C942   1.281       .  A
O935        C941   1.251       .  A
O935      Co1138   1.954       .  S
O936        C942   1.267       .  A
O936      Co1323   1.967   1_545  S
O937        C940   1.278       .  A
O938        C939   1.293       .  A
O938       Co953   2.097       .  S
C939       C1102   1.494       .  S
C940        C993   1.485       .  S
C941       C1022   1.481       .  S
C942       C1038   1.498       .  S
O943        C956   1.263       .  A
O943      Co1137   2.026   1_546  S
O944        C957   1.277       .  A
O944      Co1324   2.019   1_556  S
O945        C958   1.267       .  A
O946        C959   1.245       .  A
O947        C959   1.278       .  A
O947       Co952   2.055   1_556  S
O948        C958   1.294       .  A
O949        C956   1.248       .  A
O949       Co954   1.952   1_655  S
O950        C957   1.270       .  A
Co951      O1308   1.967       .  S
Co951      O1129   2.027       .  S
Co951       O955   2.014   1_655  S
Co952      O1121   1.948   1_545  S
Co952      O1316   2.024   1_544  S
Co953       O955   2.016   1_655  S
Co954      O1141   2.010       .  S
O955      Co1140   2.015       .  S
C956       C1070   1.490       .  S
C957       C1086   1.494       .  S
C958       C1057   1.480       .  S
C959       C1006   1.495       .  S
O960        C968   1.294       .  A
O960       Co980   2.095       .  S
O961        C969   1.277       .  A
O961       Co981   2.056       .  S
O962        C970   1.269       .  A
O962       Co982   1.971       .  S
O963        C971   1.249       .  A
O963       Co983   1.953       .  S
O964        C970   1.278       .  A
O964       Co981   2.023       .  S
O965        C971   1.265       .  A
O965       Co980   2.025       .  S
O966        C969   1.245       .  A
O966       Co983   1.939       .  S
O967        C968   1.266       .  A
O967       Co982   1.895       .  S
C968       C1054   1.481       .  S
C969       C1009   1.496       .  S
C970       C1089   1.493       .  S
C971       C1073   1.489       .  S
O972        C985   1.270       .  A
O972       Co980   1.972       .  S
O973        C986   1.250       .  A
O973       Co981   1.954       .  S
O974        C987   1.293       .  A
O974       Co982   2.096       .  S
O975        C988   1.279       .  A
O975       Co983   2.062       .  S
O976        C988   1.249       .  A
O976       Co981   1.941       .  S
O977        C987   1.271       .  A
O977       Co980   1.906       .  S
O978        C985   1.279       .  A
O978       Co983   2.024       .  S
O979        C986   1.259       .  A
O979       Co982   2.003       .  S
Co980       O984   2.017       .  S
Co981       O984   2.018       .  S
Co982       O984   2.014       .  S
Co983       O984   2.010       .  S
C985       C1041   1.499       .  S
C986       C1025   1.480       .  S
C987       C1105   1.496       .  S
C988        C990   1.486       .  S
C989        C990   1.402       .  A
C989        C994   1.407       .  A
C989        H996   1.085       .  S
C990        C991   1.420       .  A
C991        C992   1.407       .  A
C991        C998   1.509       .  S
C992        C993   1.402       .  A
C992        H997   1.085       .  S
C993        C994   1.420       .  A
C994        C995   1.510       .  S
C995        H999   1.109       .  S
C995       H1000   1.108       .  S
C995       H1001   1.111       .  S
C998       H1002   1.111       .  S
C998       H1003   1.108       .  S
C998       H1004   1.109       .  S
C1005      C1006   1.399       .  A
C1005      C1010   1.404       .  A
C1005      H1012   1.085       .  S
C1006      C1007   1.430       .  A
C1007      C1008   1.404       .  A
C1007      C1014   1.510       .  S
C1008      C1009   1.399       .  A
C1008      H1013   1.085       .  S
C1009      C1010   1.430       .  A
C1010      C1011   1.510       .  S
C1011      H1015   1.111       .  S
C1011      H1016   1.110       .  S
C1011      H1017   1.110       .  S
C1014      H1018   1.109       .  S
C1014      H1019   1.110       .  S
C1014      H1020   1.110       .  S
C1021      C1022   1.410       .  A
C1021      C1026   1.399       .  A
C1021      H1028   1.083       .  S
C1022      C1023   1.413       .  A
C1023      C1024   1.398       .  A
C1023      C1030   1.510       .  S
C1024      C1025   1.409       .  A
C1024      H1029   1.083       .  S
C1025      C1026   1.413       .  A
C1026      C1027   1.510       .  S
C1027      H1031   1.111       .  S
C1027      H1032   1.110       .  S
C1027      H1033   1.109       .  S
C1030      H1035   1.110       .  S
C1030      H1036   1.111       .  S
C1037      C1038   1.408       .  A
C1037      C1042   1.404       .  A
C1037      H1044   1.084       .  S
C1038      C1039   1.420       .  A
C1039      C1040   1.407       .  A
C1039      C1046   1.510       .  S
C1040      C1041   1.410       .  A
C1040      H1045   1.084       .  S
C1041      C1042   1.419       .  A
C1042      C1043   1.509       .  S
C1043      H1047   1.111       .  S
C1043      H1048   1.109       .  S
C1043      H1049   1.110       .  S
C1046      H1050   1.110       .  S
C1046      H1051   1.109       .  S
C1046      H1052   1.111       .  S
C1053      C1054   1.404       .  A
C1053      C1058   1.403       .  A
C1053      H1060   1.085       .  S
C1054      C1055   1.417       .  A
C1055      C1056   1.402       .  A
C1055      C1062   1.509       .  S
C1056      C1057   1.404       .  A
C1056      H1061   1.085       .  S
C1057      C1058   1.416       .  A
C1058      C1059   1.509       .  S
C1059      H1063   1.111       .  S
C1059      H1064   1.111       .  S
C1059      H1065   1.109       .  S
C1062      H1066   1.110       .  S
C1062      H1067   1.110       .  S
C1062      H1068   1.111       .  S
C1069      C1070   1.411       .  A
C1069      C1074   1.402       .  A
C1069      H1076   1.085       .  S
C1070      C1071   1.414       .  A
C1071      C1072   1.404       .  A
C1071      C1078   1.508       .  S
C1072      C1073   1.412       .  A
C1072      H1077   1.084       .  S
C1073      C1074   1.413       .  A
C1074      C1075   1.508       .  S
C1075      H1079   1.111       .  S
C1075      H1080   1.110       .  S
C1075      H1081   1.107       .  S
C1078      H1082   1.106   1_556  S
C1078      H1083   1.110       .  S
C1078      H1084   1.111       .  S
C1085      C1086   1.411       .  A
C1085      C1090   1.406       .  A
C1085      H1092   1.083       .  S
C1086      C1087   1.414       .  A
C1087      C1088   1.406       .  A
C1087      C1094   1.508       .  S
C1088      C1089   1.411       .  A
C1088      H1093   1.083       .  S
C1089      C1090   1.415       .  A
C1090      C1091   1.509       .  S
C1091      H1095   1.111       .  S
C1091      H1096   1.110       .  S
C1091      H1097   1.110       .  S
C1094      H1098   1.111       .  S
C1094      H1099   1.109       .  S
C1094      H1100   1.111       .  S
C1101      C1102   1.406       .  A
C1101      C1106   1.408       .  A
C1101      H1108   1.084       .  S
C1102      C1103   1.419       .  A
C1103      C1104   1.406       .  A
C1103      C1110   1.508       .  S
C1104      C1105   1.405       .  A
C1104      H1109   1.084       .  S
C1105      C1106   1.421       .  A
C1106      C1107   1.508       .  S
C1107      H1111   1.111       .  S
C1107      H1112   1.109       .  S
C1107      H1113   1.110       .  S
C1110      H1114   1.111       .  S
C1110      H1115   1.108       .  S
C1110      H1116   1.111       .  S
O1117      C1125   1.270       .  A
O1117     Co1137   1.898       .  S
O1118      C1126   1.248       .  A
O1118     Co1324   1.938       .  S
O1119      C1127   1.260       .  A
O1120      C1128   1.280       .  A
O1120     Co1326   2.029   1_654  S
O1121      C1127   1.247       .  A
O1122      C1128   1.268       .  A
O1123      C1126   1.277       .  A
O1124      C1125   1.293       .  A
O1124     Co1139   2.094   1_554  S
C1125      C1288   1.492       .  S
C1126      C1179   1.484       .  S
C1127      C1208   1.476       .  S
C1128      C1224   1.498       .  S
O1129      C1142   1.264       .  A
O1130      C1143   1.278       .  A
O1131      C1144   1.266       .  A
O1131     Co1325   1.894       .  S
O1132      C1145   1.247       .  A
O1133      C1145   1.279       .  A
O1133     Co1138   2.059       .  S
O1134      C1144   1.293       .  A
O1134     Co1323   2.086       .  S
O1135      C1142   1.250       .  A
O1135     Co1140   1.956   1_655  S
O1136      C1143   1.270       .  A
Co1137     O1320   2.094   1_554  S
Co1137     O1141   2.017   1_664  S
Co1138     O1304   1.941       .  S
Co1139     O1317   1.891       .  S
Co1139     O1141   2.012   1_665  S
Co1140     O1306   2.026   1_455  S
C1142      C1256   1.494       .  S
C1143      C1272   1.496       .  S
C1144      C1243   1.475       .  S
C1145      C1192   1.498       .  S
O1146      C1154   1.294       .  A
O1146     Co1166   2.088       .  S
O1147      C1155   1.279       .  A
O1147     Co1167   2.057       .  S
O1148      C1156   1.269       .  A
O1148     Co1168   1.972       .  S
O1149      C1157   1.249       .  A
O1149     Co1169   1.954       .  S
O1150      C1156   1.277       .  A
O1150     Co1167   2.021       .  S
O1151      C1157   1.265       .  A
O1151     Co1166   2.029       .  S
O1152      C1155   1.245       .  A
O1152     Co1169   1.938       .  S
O1153      C1154   1.267       .  A
O1153     Co1168   1.893       .  S
C1154      C1240   1.474       .  S
C1155      C1195   1.496       .  S
C1156      C1275   1.496       .  S
C1157      C1259   1.493       .  S
O1158      C1171   1.268       .  A
O1158     Co1166   1.968       .  S
O1159      C1172   1.249       .  A
O1159     Co1167   1.951       .  S
O1160      C1173   1.292       .  A
O1160     Co1168   2.094       .  S
O1161      C1174   1.277       .  A
O1161     Co1169   2.057       .  S
O1162      C1174   1.249       .  A
O1162     Co1167   1.943       .  S
O1163      C1173   1.270       .  A
O1163     Co1166   1.903       .  S
O1164      C1171   1.279       .  A
O1164     Co1169   2.023       .  S
O1165      C1172   1.259       .  A
O1165     Co1168   2.005       .  S
Co1166     O1170   2.015       .  S
Co1167     O1170   2.015       .  S
Co1168     O1170   2.014       .  S
Co1169     O1170   2.007       .  S
C1171      C1227   1.497       .  S
C1172      C1211   1.477       .  S
C1173      C1291   1.494       .  S
C1174      C1176   1.484       .  S
C1175      C1176   1.402       .  A
C1175      C1180   1.406       .  A
C1175      H1182   1.083       .  S
C1176      C1177   1.419       .  A
C1177      C1178   1.407       .  A
C1177      C1184   1.509       .  S
C1178      C1179   1.404       .  A
C1178      H1183   1.083       .  S
C1179      C1180   1.419       .  A
C1180      C1181   1.509       .  S
C1181      H1185   1.109       .  S
C1181      H1186   1.109       .  S
C1181      H1187   1.110       .  S
C1184      H1188   1.111       .  S
C1184      H1189   1.109       .  S
C1184      H1190   1.111       .  S
C1191      C1192   1.400       .  A
C1191      C1196   1.406       .  A
C1191      H1198   1.084       .  S
C1192      C1193   1.429       .  A
C1193      C1194   1.404       .  A
C1193      C1200   1.508       .  S
C1194      C1195   1.398       .  A
C1194      H1199   1.084       .  S
C1195      C1196   1.430       .  A
C1196      C1197   1.511       .  S
C1197      H1201   1.111       .  S
C1197      H1202   1.110       .  S
C1197      H1203   1.110       .  S
C1200      H1204   1.108       .  S
C1200      H1205   1.111       .  S
C1200      H1206   1.110       .  S
C1207      C1208   1.410       .  A
C1207      C1212   1.397       .  A
C1207      H1214   1.083       .  S
C1208      C1209   1.412       .  A
C1209      C1210   1.397       .  A
C1209      C1216   1.509       .  S
C1210      C1211   1.410       .  A
C1210      H1215   1.084       .  S
C1211      C1212   1.413       .  A
C1212      C1213   1.510       .  S
C1213      H1217   1.111       .  S
C1213      H1218   1.110       .  S
C1213      H1219   1.109       .  S
C1216      H1406   1.109   1_554  S
C1216      H1221   1.110       .  S
C1216      H1222   1.111       .  S
H1220      C1402   1.109       .  S
C1223      C1224   1.410       .  A
C1223      C1228   1.406       .  A
C1223      H1230   1.083       .  S
C1224      C1225   1.420       .  A
C1225      C1226   1.404       .  A
C1225      C1232   1.510       .  S
C1226      C1227   1.409       .  A
C1226      H1231   1.083       .  S
C1227      C1228   1.419       .  A
C1228      C1229   1.510       .  S
C1229      H1233   1.111       .  S
C1229      H1234   1.109       .  S
C1229      H1235   1.111       .  S
C1232      H1236   1.110       .  S
C1232      H1237   1.109       .  S
C1232      H1238   1.111       .  S
C1239      C1240   1.403       .  A
C1239      C1244   1.401       .  A
C1239      H1246   1.085       .  S
C1240      C1241   1.415       .  A
C1241      C1242   1.401       .  A
C1241      C1248   1.509       .  S
C1242      C1243   1.403       .  A
C1242      H1247   1.085       .  S
C1243      C1244   1.416       .  A
C1244      C1245   1.509       .  S
C1245      H1249   1.111       .  S
C1245      H1250   1.110       .  S
C1245      H1251   1.110       .  S
C1248      H1252   1.109       .  S
C1248      H1253   1.110       .  S
C1248      H1254   1.111       .  S
C1255      C1256   1.411       .  A
C1255      C1260   1.405       .  A
C1255      H1262   1.085       .  S
C1256      C1257   1.415       .  A
C1257      C1258   1.404       .  A
C1257      C1264   1.508       .  S
C1258      C1259   1.411       .  A
C1258      H1263   1.084       .  S
C1259      C1260   1.415       .  A
C1260      C1261   1.508       .  S
C1261      H1265   1.111       .  S
C1261      H1266   1.110       .  S
C1261      H1267   1.106       .  S
C1264      H1268   1.107       .  S
C1264      H1269   1.110       .  S
C1264      H1270   1.111       .  S
C1271      C1272   1.411       .  A
C1271      C1276   1.405       .  A
C1271      H1278   1.082       .  S
C1272      C1273   1.417       .  A
C1273      C1274   1.407       .  A
C1273      C1280   1.509       .  S
C1274      C1275   1.412       .  A
C1274      H1279   1.082       .  S
C1275      C1276   1.416       .  A
C1276      C1277   1.509       .  S
C1277      H1281   1.111       .  S
C1277      H1282   1.110       .  S
C1277      H1283   1.111       .  S
C1280      H1284   1.110       .  S
C1280      H1285   1.110       .  S
C1280      H1286   1.111       .  S
C1287      C1288   1.405       .  A
C1287      C1292   1.405       .  A
C1287      H1294   1.083       .  S
C1288      C1289   1.420       .  A
C1289      C1290   1.405       .  A
C1289      C1296   1.509       .  S
C1290      C1291   1.406       .  A
C1290      H1295   1.083       .  S
C1291      C1292   1.421       .  A
C1292      C1293   1.509       .  S
C1293      H1297   1.111       .  S
C1293      H1298   1.109       .  S
C1293      H1299   1.110       .  S
C1296      H1300   1.111       .  S
C1296      H1301   1.109       .  S
C1296      H1302   1.111       .  S
O1303      C1311   1.268       .  A
O1303     Co1323   1.901       .  S
O1304      C1312   1.249       .  A
O1305      C1313   1.259       .  A
O1306      C1314   1.279       .  A
O1307      C1313   1.250       .  A
O1308      C1314   1.268       .  A
O1309      C1312   1.275       .  A
O1310      C1311   1.293       .  A
O1310     Co1325   2.092       .  S
C1311      C1474   1.483       .  S
C1312      C1365   1.479       .  S
C1313      C1394   1.479       .  S
C1314      C1410   1.496       .  S
O1315      C1328   1.264       .  A
O1316      C1329   1.278       .  A
O1317      C1330   1.266       .  A
O1318      C1331   1.245       .  A
O1319      C1331   1.278       .  A
O1319     Co1324   2.059   1_556  S
O1320      C1330   1.296       .  A
O1321      C1328   1.248       .  A
O1321     Co1326   1.953   1_655  S
O1322      C1329   1.269       .  A
Co1323     O1327   2.021   1_665  S
Co1325     O1327   2.013   1_665  S
C1328      C1442   1.491       .  S
C1329      C1458   1.499       .  S
C1330      C1429   1.486       .  S
C1331      C1378   1.497       .  S
O1332      C1340   1.295       .  A
O1332     Co1352   2.091       .  S
O1333      C1341   1.278       .  A
O1333     Co1353   2.062       .  S
O1334      C1342   1.270       .  A
O1334     Co1354   1.973       .  S
O1335      C1343   1.247       .  A
O1335     Co1355   1.951       .  S
O1336      C1342   1.278       .  A
O1336     Co1353   2.026       .  S
O1337      C1343   1.265       .  A
O1337     Co1352   2.035       .  S
O1338      C1341   1.244       .  A
O1338     Co1355   1.936       .  S
O1339      C1340   1.265       .  A
O1339     Co1354   1.894       .  S
C1340      C1426   1.486       .  S
C1341      C1381   1.498       .  S
C1342      C1461   1.499       .  S
C1343      C1445   1.493       .  S
O1344      C1357   1.267       .  A
O1344     Co1352   1.971       .  S
O1345      C1358   1.249       .  A
O1345     Co1353   1.953       .  S
O1346      C1359   1.293       .  A
O1346     Co1354   2.094       .  S
O1347      C1360   1.277       .  A
O1347     Co1355   2.056       .  S
O1348      C1360   1.247       .  A
O1348     Co1353   1.939       .  S
O1349      C1359   1.269       .  A
O1349     Co1352   1.899       .  S
O1350      C1357   1.279       .  A
O1350     Co1355   2.026       .  S
O1351      C1358   1.259       .  A
O1351     Co1354   2.003       .  S
Co1352     O1356   2.023       .  S
Co1353     O1356   2.022       .  S
Co1354     O1356   2.011       .  S
Co1355     O1356   2.010       .  S
C1357      C1413   1.499       .  S
C1358      C1397   1.480       .  S
C1359      C1477   1.484       .  S
C1360      C1362   1.481       .  S
C1361      C1362   1.403       .  A
C1361      C1366   1.404       .  A
C1361      H1368   1.083       .  S
C1362      C1363   1.420       .  A
C1363      C1364   1.405       .  A
C1363      C1370   1.509       .  S
C1364      C1365   1.402       .  A
C1364      H1369   1.084       .  S
C1365      C1366   1.418       .  A
C1366      C1367   1.510       .  S
C1367      H1371   1.110       .  S
C1367      H1372   1.109       .  S
C1367      H1373   1.111       .  S
C1370      H1374   1.110       .  S
C1370      H1375   1.108       .  S
C1370      H1376   1.110       .  S
C1377      C1378   1.399       .  A
C1377      C1382   1.405       .  A
C1377      H1384   1.084       .  S
C1378      C1379   1.430       .  A
C1379      C1380   1.405       .  A
C1379      C1386   1.510       .  S
C1380      C1381   1.398       .  A
C1380      H1385   1.084       .  S
C1381      C1382   1.431       .  A
C1382      C1383   1.510       .  S
C1383      H1387   1.111       .  S
C1383      H1388   1.110       .  S
C1383      H1389   1.110       .  S
C1386      H1390   1.110       .  S
C1386      H1391   1.110       .  S
C1386      H1392   1.111       .  S
C1393      C1394   1.409       .  A
C1393      C1398   1.398       .  A
C1393      H1400   1.083       .  S
C1394      C1395   1.414       .  A
C1395      C1396   1.398       .  A
C1395      C1402   1.510       .  S
C1396      C1397   1.409       .  A
C1396      H1401   1.083       .  S
C1397      C1398   1.414       .  A
C1398      C1399   1.510       .  S
C1399      H1403   1.111       .  S
C1399      H1404   1.110       .  S
C1399      H1405   1.109       .  S
C1402      H1407   1.110       .  S
C1402      H1408   1.111       .  S
C1409      C1410   1.410       .  A
C1409      C1414   1.407       .  A
C1409      H1416   1.084       .  S
C1410      C1411   1.418       .  A
C1411      C1412   1.404       .  A
C1411      C1418   1.510       .  S
C1412      C1413   1.409       .  A
C1412      H1417   1.083       .  S
C1413      C1414   1.420       .  A
C1414      C1415   1.509       .  S
C1415      H1419   1.111       .  S
C1415      H1420   1.109       .  S
C1415      H1421   1.110       .  S
C1418      H1422   1.111       .  S
C1418      H1423   1.109       .  S
C1418      H1424   1.111       .  S
C1425      C1426   1.405       .  A
C1425      C1430   1.402       .  A
C1425      H1432   1.085       .  S
C1426      C1427   1.418       .  A
C1427      C1428   1.403       .  A
C1427      C1434   1.509       .  S
C1428      C1429   1.405       .  A
C1428      H1433   1.084       .  S
C1429      C1430   1.418       .  A
C1430      C1431   1.509       .  S
C1431      H1435   1.111       .  S
C1431      H1436   1.111       .  S
C1431      H1437   1.110       .  S
C1434      H1438   1.111       .  S
C1434      H1439   1.110       .  S
C1434      H1440   1.111       .  S
C1441      C1442   1.412       .  A
C1441      C1446   1.404       .  A
C1441      H1448   1.085       .  S
C1442      C1443   1.413       .  A
C1443      C1444   1.403       .  A
C1443      C1450   1.508       .  S
C1444      C1445   1.412       .  A
C1444      H1449   1.083       .  S
C1445      C1446   1.414       .  A
C1446      C1447   1.507       .  S
C1447      H1451   1.111       .  S
C1447      H1452   1.110       .  S
C1447      H1453   1.105       .  S
C1450      H1454   1.107   1_556  S
C1450      H1455   1.110       .  S
C1450      H1456   1.110       .  S
C1457      C1458   1.411       .  A
C1457      C1462   1.406       .  A
C1457      H1464   1.081       .  S
C1458      C1459   1.418       .  A
C1459      C1460   1.409       .  A
C1459      C1466   1.509       .  S
C1460      C1461   1.412       .  A
C1460      H1465   1.082       .  S
C1461      C1462   1.417       .  A
C1462      C1463   1.509       .  S
C1463      H1467   1.110       .  S
C1463      H1468   1.110       .  S
C1463      H1469   1.110       .  S
C1466      H1470   1.111       .  S
C1466      H1471   1.110       .  S
C1466      H1472   1.111       .  S
C1473      C1474   1.405       .  A
C1473      C1478   1.405       .  A
C1473      H1480   1.084       .  S
C1474      C1475   1.415       .  A
C1475      C1476   1.404       .  A
C1475      C1482   1.508       .  S
C1476      C1477   1.404       .  A
C1476      H1481   1.084       .  S
C1477      C1478   1.417       .  A
C1478      C1479   1.508       .  S
C1479      H1483   1.111       .  S
C1479      H1484   1.109       .  S
C1479      H1485   1.110       .  S
C1482      H1486   1.111       .  S
C1482      H1487   1.108       .  S
C1482      H1488   1.111       .  S
