geometry optimzed in LAMMPS
_audit_creation_date              2020-11-30 
_audit_creation_method            'lammps2cif' 
_symmetry_space_group_name_H-M    'P1' 
_symmetry_Int_Tables_number       1 
_symmetry_cell_setting            triclinic 
loop_ 
_symmetry_equiv_pos_as_xyz 
  x,y,z 
_cell_length_a                    36.02904409 
_cell_length_b                    36.13528508359455 
_cell_length_c                    46.511514460774265 
_cell_angle_alpha                 89.44835522746627 
_cell_angle_beta                  89.51187650786372 
_cell_angle_gamma                 90.38406630757414 
loop_ 
_atom_site_label 
_atom_site_type_symbol 
_atom_site_fract_x 
_atom_site_fract_y 
_atom_site_fract_z 
_atom_site_charge 
O1          O  0.29982160  0.86159842  0.02465928    -0.56600
C2          C  0.28577202  0.87739429  0.43862528     0.76000
O3          O  0.18069469  0.86219557  0.49456385    -0.57800
C4          C  0.28899343  0.87635020  0.04780582     0.76000
C5          C  0.23838395  0.96263362  0.49772092     0.78400
Cd6        Cd  0.24769454  0.88404082  0.99438786     1.37500
O7          O  0.29909804  0.86539210  0.46196462    -0.56600
O8          O  0.26912086  0.94672477  0.99389053    -0.55400
C9          C  0.18820648  0.82814890  0.99700075     0.78300
O10         O  0.20974678  0.94205245  0.99943435    -0.57800
O11         O  0.25405837  0.89212601  0.44040367    -0.56200
O12         O  0.25894393  0.89411226  0.04660085    -0.56200
O13         O  0.22224519  0.82022598  0.49818176    -0.55400
O14         O  0.29814231  0.10059998  0.47267993    -0.56600
C15         C  0.28444229  0.08898767  0.05789781     0.76000
O16         O  0.17753419  0.10176857  0.00198172    -0.57800
C17         C  0.28386756  0.09211871  0.44884529     0.76000
C18         C  0.23776049  0.00294268  0.99989356     0.78400
Cd19       Cd  0.24478876  0.08188803  0.50337927     1.37500
O20         O  0.29498591  0.10539582  0.03507660    -0.56600
O21         O  0.26753563  0.02089679  0.49576111    -0.55400
C22         C  0.18467285  0.13620239  0.50177804     0.78300
O23         O  0.20907230  0.02155422  0.50614290    -0.57800
O24         O  0.25508466  0.06978077  0.05606480    -0.56200
O25         O  0.25102515  0.07952415  0.44979127    -0.56200
O26         O  0.21859328  0.14502507  0.00279489    -0.55400
O27         O  0.87770906  0.68747430  0.46865656    -0.56600
C28         C  0.89916962  0.69520733  0.05444260     0.76000
O29         O  0.96544911  0.77164377  0.49674929    -0.57800
C30         C  0.89567259  0.69563683  0.44597671     0.76000
C31         C  0.85183664  0.79532561  0.99947635     0.78400
Cd32       Cd  0.90607730  0.73507563  0.49979638     1.37500
O33         O  0.88775853  0.68208016  0.03095287    -0.56600
O34         O  0.84363331  0.76245020  0.50617563    -0.55400
C35         C  0.98519445  0.74309885  0.50057252     0.78300
O36         O  0.88567440  0.80163195  0.49334784    -0.57800
O37         O  0.91326117  0.72739864  0.05322286    -0.56200
O38         O  0.91846123  0.72220317  0.44776012    -0.56200
O39         O  0.96832241  0.71262205  0.00419576    -0.55400
O40         O  0.12911152  0.68928923  0.03141293    -0.56600
C41         C  0.11382615  0.69710155  0.44517782     0.76000
O42         O  0.04511250  0.77259405  0.49545670    -0.57800
C43         C  0.11330538  0.70019408  0.05419217     0.76000
C44         C  0.15936584  0.79875111  0.49810836     0.78400
Cd45       Cd  0.10496710  0.73781970  0.49886922     1.37500
O46         O  0.12796403  0.68661171  0.46863805    -0.56600
O47         O  0.16811891  0.76519980  0.00104885    -0.55400
C48         C  0.02579344  0.74368855  0.00036632     0.78300
O49         O  0.12500451  0.80527489  0.99596614    -0.57800
O50         O  0.09561856  0.72685358  0.44595755    -0.56200
O51         O  0.09403361  0.72921961  0.05194704    -0.56200
O52         O  0.04313348  0.71392299  0.50470070    -0.55400
O53         O  0.71116249  0.86098401  0.02975614    -0.56600
C54         C  0.72501321  0.87130721  0.44392544     0.76000
O55         O  0.79721118  0.94013250  0.50609427    -0.57800
C56         C  0.72432503  0.87323207  0.05297851     0.76000
C57         C  0.82312131  0.82456122  0.49876685     0.78400
Cd58       Cd  0.76369927  0.87984478  0.49838468     1.37500
O59         O  0.71335387  0.85620775  0.46702773    -0.56600
O60         O  0.78975503  0.81698633  0.00535073    -0.55400
C61         C  0.76923046  0.95891993  0.99862335     0.78300
O62         O  0.82988656  0.85773542  0.99161430    -0.57800
O63         O  0.75526061  0.88914428  0.44551221    -0.56200
O64         O  0.75607521  0.88828153  0.05137443    -0.56200
O65         O  0.74086551  0.94129824  0.49075486    -0.55400
O66         O  0.70488440  0.09410438  0.47118100    -0.56600
C67         C  0.71724367  0.08393296  0.05592528     0.76000
O68         O  0.79477822  0.01957666  0.50772894    -0.57800
C69         C  0.72062054  0.08772767  0.44731750     0.76000
C70         C  0.81763292  0.13420886  0.00102560     0.78400
Cd71       Cd  0.75842991  0.07827564  0.50179007     1.37500
O72         O  0.70628864  0.09898548  0.03286545    -0.56600
O73         O  0.78392293  0.14212327  0.50508208    -0.55400
C74         C  0.76801439  0.99948317  0.49945080     0.78300
O75         O  0.82484167  0.10025778  0.49786569    -0.57800
O76         O  0.74748839  0.06645740  0.05439687    -0.56200
O77         O  0.75435554  0.07834300  0.44829526    -0.56200
O78         O  0.73864219  0.01579711  0.99225018    -0.55400
O79         O  0.89380913  0.67774217  0.32484427    -0.56600
C80         C  0.88924439  0.67585902  0.41891587     0.76000
O81         O  0.80151020  0.64594315  0.37312757    -0.57800
C82         C  0.90888686  0.65134748  0.31147902     0.76000
C83         C  0.86749000  0.56073146  0.36834088     0.78400
Cd84       Cd  0.86943888  0.63983134  0.36538699     1.37500
O85         O  0.90752976  0.68254371  0.39603908    -0.56600
O86         O  0.89427155  0.57900753  0.37879632    -0.55400
C87         C  0.79728672  0.66868630  0.35260809     0.78300
O88         O  0.84151281  0.57934565  0.35730571    -0.57800
O89         O  0.86406691  0.65161520  0.41727358    -0.56200
O90         O  0.91059368  0.62085557  0.32505684    -0.56200
O91         O  0.82587265  0.67636369  0.33780679    -0.55400
O92         O  0.70747243  0.86956766  0.32100641    -0.56600
C93         C  0.70470906  0.86749226  0.41662563     0.76000
O94         O  0.60433649  0.82769811  0.35707587    -0.57800
C95         C  0.68413942  0.88951782  0.30799886     0.76000
C96         C  0.69015903  0.77923150  0.34858510     0.78400
Cd97       Cd  0.66681359  0.85279744  0.36227860     1.37500
O98         O  0.71347345  0.88523419  0.39391701    -0.56600
O99         O  0.70079118  0.80731224  0.33437176    -0.55400
C100        C  0.58684545  0.85649028  0.36422316     0.78300
O101        O  0.66643475  0.78474429  0.36825686    -0.57800
O102        O  0.67758529  0.84552031  0.41460797    -0.56200
O103        O  0.65468782  0.89674290  0.32191128    -0.56200
O104        O  0.60646963  0.88421116  0.37124581    -0.55400
O105        O  0.64833445  0.06127910  0.32935032    -0.56600
C106        C  0.70068103  0.09179624  0.41997052     0.76000
O107        O  0.66737459  0.17557596  0.37876913    -0.57800
C108        C  0.67540746  0.07041022  0.31315218     0.76000
C109        C  0.58269824  0.10791584  0.36990897     0.78400
Cd110      Cd  0.66190010  0.10900636  0.36679977     1.37500
O111        O  0.71595788  0.08649950  0.39577405    -0.56600
O112        O  0.60108441  0.07936593  0.37668003    -0.55400
C113        C  0.68458582  0.18419222  0.35582812     0.78300
O114        O  0.60127374  0.13617665  0.36210463    -0.57800
O115        O  0.66717333  0.10156106  0.41950300    -0.56200
O116        O  0.69824029  0.09327116  0.32358517    -0.56200
O117        O  0.68832457  0.15878008  0.33764756    -0.55400
O118        O  0.89490486  0.26978273  0.39121074    -0.56600
C119        C  0.90640689  0.30419733  0.30986945     0.76000
O120        O  0.80218254  0.31082848  0.37748477    -0.57800
C121        C  0.88606397  0.28292475  0.41543824     0.76000
C122        C  0.86895032  0.40093359  0.36431392     0.78400
Cd123      Cd  0.86713230  0.32155295  0.36237080     1.37500
O124        O  0.88352289  0.28209015  0.32176119    -0.56600
O125        O  0.89518465  0.38171128  0.37439184    -0.55400
C126        C  0.79195071  0.29731504  0.35385796     0.78300
O127        O  0.84241547  0.38325682  0.35306743    -0.57800
O128        O  0.91547206  0.33231536  0.32438793    -0.56200
O129        O  0.87149593  0.31456969  0.41512174    -0.56200
O130        O  0.81551676  0.29838522  0.33361834    -0.55400
O131        O  0.10781611  0.68672682  0.39421191    -0.56600
C132        C  0.10414721  0.65027183  0.31231013     0.76000
O133        O  0.20614966  0.65196550  0.38169049    -0.57800
C134        C  0.11980270  0.67618890  0.41847351     0.76000
C135        C  0.13743148  0.55851614  0.37246899     0.78400
Cd136      Cd  0.14212077  0.63780163  0.36644203     1.37500
O137        O  0.11624570  0.67715314  0.32694254    -0.56600
O138        O  0.10958854  0.57865320  0.37785491    -0.55400
C139        C  0.21751871  0.66436863  0.35771734     0.78300
O140        O  0.16707369  0.57531838  0.36520525    -0.57800
O141        O  0.10641671  0.61868291  0.32407489    -0.56200
O142        O  0.13868112  0.64693124  0.41866119    -0.56200
O143        O  0.19496385  0.66179450  0.33718025    -0.55400
O144        O  0.30778264  0.87636046  0.31683079    -0.56600
C145        C  0.30619918  0.87320276  0.41109419     0.76000
O146        O  0.33787577  0.79013791  0.37499582    -0.57800
C147        C  0.33325095  0.89477990  0.30416288     0.76000
C148        C  0.42602653  0.85792805  0.36230118     0.78400
Cd149      Cd  0.34633167  0.85442183  0.35807065     1.37500
O150        O  0.29227237  0.88048045  0.38677648    -0.56600
O151        O  0.40624627  0.88486747  0.37041629    -0.55400
C152        C  0.32546130  0.77720933  0.35185637     0.78300
O153        O  0.40873885  0.83000784  0.35285121    -0.57800
O154        O  0.33886247  0.86086430  0.41068704    -0.56200
O155        O  0.36314073  0.89824553  0.31799413    -0.56200
O156        O  0.32537915  0.79927987  0.33060527    -0.55400
O157        O  0.11022709  0.28242785  0.32279390    -0.56600
C158        C  0.11582533  0.28105112  0.41642461     0.76000
O159        O  0.20073938  0.31804207  0.37214447    -0.57800
C160        C  0.09563486  0.30878348  0.30886606     0.76000
C161        C  0.13052785  0.39870581  0.36956415     0.78400
Cd162      Cd  0.13345202  0.32026372  0.36290758     1.37500
O163        O  0.10559083  0.26805351  0.39257391    -0.56600
O164        O  0.10134997  0.37931801  0.37344351    -0.55400
C165        C  0.20890309  0.29857164  0.35063221     0.78300
O166        O  0.15968418  0.38145496  0.36259592    -0.57800
O167        O  0.13118870  0.31242950  0.41550310    -0.56200
O168        O  0.09387721  0.33942177  0.32180302    -0.56200
O169        O  0.18271300  0.29172292  0.33361109    -0.55400
O170        O  0.29169465  0.08787714  0.39749765    -0.56600
C171        C  0.32743406  0.07792127  0.31631056     0.76000
O172        O  0.32786091  0.18142522  0.38199150    -0.57800
C173        C  0.30431982  0.09781152  0.42159230     0.76000
C174        C  0.42248255  0.11218117  0.37263569     0.78400
Cd175      Cd  0.34344375  0.11726624  0.36864124     1.37500
O176        O  0.30349415  0.09767744  0.32890164    -0.56600
O177        O  0.40192660  0.08501641  0.37985799    -0.55400
C178        C  0.32088783  0.19249493  0.35677224     0.78300
O179        O  0.40613434  0.14140173  0.36467267    -0.57800
O180        O  0.35714441  0.07221465  0.32993511    -0.56200
O181        O  0.33549250  0.11392902  0.42114966    -0.56200
O182        O  0.32756107  0.16988942  0.33688409    -0.55400
O183        O  0.87707486  0.26995062  0.03002166    -0.56600
C184        C  0.89134174  0.26246018  0.44264692     0.76000
O185        O  0.96123284  0.18813668  0.50042312    -0.57800
C186        C  0.89537252  0.26042667  0.05195494     0.76000
C187        C  0.84661033  0.16341537  0.49967425     0.78400
Cd188      Cd  0.90177715  0.22314675  0.49692640     1.37500
O189        O  0.88460081  0.27717672  0.46670110    -0.56600
O190        O  0.83833213  0.19709920  0.00256238    -0.55400
C191        C  0.98079591  0.21661203  0.99497197     0.78300
O192        O  0.88058859  0.15651467  0.99539048    -0.57800
O193        O  0.90191511  0.22913405  0.44331972    -0.56200
O194        O  0.91694099  0.23325706  0.04892823    -0.56200
O195        O  0.96377490  0.24628348  0.48935254    -0.55400
O196        O  0.12330184  0.27429519  0.46712384    -0.56600
C197        C  0.10869396  0.26429349  0.05294100     0.76000
O198        O  0.04063283  0.18857934  0.50117950    -0.57800
C199        C  0.11100745  0.26106379  0.44393591     0.76000
C200        C  0.15557058  0.16478381  0.00047442     0.78400
Cd201      Cd  0.10058625  0.22409903  0.49908436     1.37500
O202        O  0.12041169  0.27680279  0.02903712    -0.56600
O203        O  0.16411132  0.19874994  0.49856819    -0.55400
C204        C  0.02138881  0.21707176  0.49589993     0.78300
O205        O  0.12119054  0.15736513  0.50128756    -0.57800
O206        O  0.09290099  0.23293827  0.05243813    -0.56200
O207        O  0.09498507  0.22985424  0.44575867    -0.56200
O208        O  0.03872204  0.24712322  0.99215884    -0.55400
O209        O  0.90639164  0.68587947  0.10558030    -0.56600
C210        C  0.91198607  0.64938146  0.18879828     0.76000
O211        O  0.80980741  0.64443262  0.12101248    -0.57800
C212        C  0.89469204  0.67427578  0.08166917     0.76000
C213        C  0.87666336  0.55559142  0.13172242     0.78400
Cd214      Cd  0.87495270  0.63515724  0.13489433     1.37500
O215        O  0.89470654  0.67451253  0.17538061    -0.56600
O216        O  0.90501142  0.57483203  0.12482295    -0.55400
C217        C  0.79984978  0.66016921  0.14392272     0.78300
O218        O  0.84826096  0.57336881  0.13964888    -0.57800
O219        O  0.91684233  0.61951519  0.17529581    -0.56200
O220        O  0.87756002  0.64375144  0.08231932    -0.56200
O221        O  0.82356083  0.66096614  0.16374401    -0.55400
O222        O  0.70778885  0.86872599  0.17311590    -0.56600
C223        C  0.70406717  0.86862708  0.08039147     0.76000
O224        O  0.67701965  0.78382025  0.11881746    -0.57800
C225        C  0.68347088  0.88760809  0.18608377     0.76000
C226        C  0.58625786  0.85244410  0.13220150     0.78400
Cd227      Cd  0.66654018  0.84844004  0.13376066     1.37500
O228        O  0.71700097  0.87908934  0.10422938    -0.56600
O229        O  0.60645475  0.87954808  0.12416734    -0.55400
C230        C  0.69201339  0.77320386  0.14189021     0.78300
O231        O  0.60328220  0.82378745  0.14062979    -0.57800
O232        O  0.67293903  0.85250433  0.08128928    -0.56200
O233        O  0.65327837  0.89228067  0.17288335    -0.56200
O234        O  0.69214497  0.79634062  0.16208942    -0.55400
O235        O  0.70584274  0.07196755  0.10630503    -0.56600
C236        C  0.67469897  0.06669106  0.19095008     0.76000
O237        O  0.66796938  0.17339053  0.12850609    -0.57800
C238        C  0.69656355  0.08811710  0.08320026     0.76000
C239        C  0.58045125  0.10474588  0.13786233     0.78400
Cd240      Cd  0.66027805  0.10591111  0.13765346     1.37500
O241        O  0.70047974  0.08236641  0.17658643    -0.56600
O242        O  0.59899886  0.07708583  0.12948039    -0.55400
C243        C  0.68866686  0.17874521  0.14990746     0.78300
O244        O  0.59901501  0.13297001  0.14517545    -0.57800
O245        O  0.64363985  0.06426046  0.17854098    -0.56200
O246        O  0.66907243  0.10941732  0.08489530    -0.56200
O247        O  0.69389953  0.15113700  0.16613172    -0.55400
O248        O  0.91080058  0.33440673  0.17450464    -0.56600
C249        C  0.89047332  0.27966531  0.07950061     0.76000
O250        O  0.80361466  0.31172727  0.12675991    -0.57800
C251        C  0.90868281  0.30367407  0.18772757     0.76000
C252        C  0.87528196  0.39528328  0.13007773     0.78400
Cd253      Cd  0.87201642  0.31602058  0.13345845     1.37500
O254        O  0.90734342  0.27074100  0.10231150    -0.56600
O255        O  0.90365125  0.37592932  0.12450376    -0.55400
C256        C  0.79860631  0.28930694  0.14749107     0.78300
O257        O  0.84576126  0.37768921  0.13644932    -0.57800
O258        O  0.86785635  0.30593751  0.08155574    -0.56200
O259        O  0.89403568  0.27725595  0.17402527    -0.56200
O260        O  0.82686356  0.28159766  0.16215234    -0.55400
O261        O  0.11294313  0.68201306  0.17664794    -0.56600
C262        C  0.11825833  0.68038844  0.08178543     0.76000
O263        O  0.20328772  0.64792550  0.12915636    -0.57800
C264        C  0.09745024  0.65561838  0.19039252     0.76000
C265        C  0.13382625  0.56341129  0.13243518     0.78400
Cd266      Cd  0.13530771  0.64301168  0.13615757     1.37500
O267        O  0.09961525  0.68734814  0.10429710    -0.56600
O268        O  0.10550880  0.58251085  0.12627219    -0.55400
C269        C  0.20809447  0.67046296  0.14942427     0.78300
O270        O  0.16234288  0.58129904  0.14012112    -0.57800
O271        O  0.14235178  0.65548735  0.08418887    -0.56200
O272        O  0.09492868  0.62524411  0.17714521    -0.56200
O273        O  0.17988698  0.67762333  0.16458719    -0.55400
O274        O  0.30203642  0.89011224  0.09723907    -0.56600
C275        C  0.33177141  0.89559145  0.18250553     0.76000
O276        O  0.34152423  0.78637859  0.12697623    -0.57800
C277        C  0.30946338  0.87173389  0.07491023     0.76000
C278        C  0.42514768  0.85407209  0.12913659     0.78400
Cd279      Cd  0.34505033  0.85494092  0.12976485     1.37500
O280        O  0.36114975  0.90054522  0.16776041    -0.56600
O281        O  0.40725812  0.88227715  0.12080921    -0.55400
C282        C  0.31542995  0.78328341  0.14524267     0.78300
O283        O  0.40584611  0.82628422  0.13697665    -0.57800
O284        O  0.30699526  0.87579311  0.17101851    -0.56200
O285        O  0.33479581  0.84805823  0.07734558    -0.56200
O286        O  0.30452310  0.81286060  0.15668022    -0.55400
O287        O  0.11688960  0.28517005  0.17403530    -0.56600
C288        C  0.11461912  0.28490394  0.07977397     0.76000
O289        O  0.16297398  0.38555348  0.13262787    -0.57800
C290        C  0.09719336  0.30944531  0.18623113     0.76000
C291        C  0.20881226  0.29887301  0.14421105     0.78400
Cd292      Cd  0.13507563  0.32402090  0.13197875     1.37500
O293        O  0.10281493  0.27370301  0.10410407    -0.56600
O294        O  0.18542668  0.30555966  0.16379368    -0.55400
C295        C  0.13354890  0.40331223  0.12751683     0.78300
O296        O  0.19956477  0.30754062  0.11889028    -0.57800
O297        O  0.13304996  0.31470088  0.07961156    -0.56200
O298        O  0.09065250  0.33825515  0.17144193    -0.56200
O299        O  0.10461497  0.38411483  0.12314986    -0.55400
O300        O  0.29961207  0.09195116  0.18106891    -0.56600
C301        C  0.30463907  0.09333573  0.08522190     0.76000
O302        O  0.34006878  0.17878430  0.13510931    -0.57800
C303        C  0.32421522  0.07404299  0.19444963     0.76000
C304        C  0.41965657  0.10706213  0.14105008     0.78400
Cd305      Cd  0.33973046  0.11047997  0.14012577     1.37500
O306        O  0.29639517  0.07516764  0.10784011    -0.56600
O307        O  0.40016003  0.07957991  0.13331813    -0.55400
C308        C  0.31208947  0.18330027  0.15131375     0.78300
O309        O  0.40204912  0.13599748  0.14779005    -0.57800
O310        O  0.33071907  0.11656002  0.08745853    -0.56200
O311        O  0.35416157  0.06846811  0.18080322    -0.56200
O312        O  0.29893859  0.15462805  0.16343914    -0.55400
C313        C  0.24282370  0.25443577  0.17460420    -0.20100
C314        C  0.24272219  0.27776074  0.15029565    -0.08100
C315        C  0.27119414  0.27448982  0.12962841     0.30700
C316        C  0.29659587  0.24552402  0.13171582    -0.20100
C317        C  0.29349096  0.21929242  0.15409959    -0.08200
C318        C  0.26761859  0.22510441  0.17638574     0.30700
F319        F  0.26428606  0.20086748  0.19876535    -0.18700
H320        H  0.22135870  0.25656604  0.19096160     0.19100
H321        H  0.31658043  0.24179468  0.11445500     0.19100
F322        F  0.27283616  0.29750587  0.10640959    -0.18700
C323        C  0.10162509  0.50327286  0.12224592    -0.20100
C324        C  0.13374104  0.52243962  0.13077497    -0.08100
C325        C  0.16560379  0.50199716  0.13782475     0.30700
C326        C  0.16535296  0.46349148  0.13593911    -0.20100
C327        C  0.13326456  0.44427623  0.12758909    -0.08200
C328        C  0.10119632  0.46456073  0.12084535     0.30700
F329        F  0.06933107  0.44714355  0.11318428    -0.18700
H330        H  0.07664099  0.51823955  0.11688707     0.19100
H331        H  0.19029218  0.44864314  0.14161958     0.19100
F332        F  0.19700322  0.51898407  0.14699080    -0.18700
C333        C  0.24596193  0.71586973  0.17619603    -0.20100
C334        C  0.24333433  0.69063968  0.15351843    -0.08100
C335        C  0.27100004  0.69094781  0.13196567     0.30700
C336        C  0.29738982  0.71947080  0.13098210    -0.20100
C337        C  0.29643857  0.74779855  0.15140523    -0.08200
C338        C  0.27223271  0.74434022  0.17517458     0.30700
F339        F  0.27189628  0.77010082  0.19623597    -0.18700
H340        H  0.22561359  0.71560672  0.19348488     0.19100
H341        H  0.31628798  0.72120377  0.11276161     0.19100
F342        F  0.27025064  0.66619632  0.11020828    -0.18700
C343        C  0.52056820  0.13510031  0.15056837    -0.20100
C344        C  0.53932983  0.10436686  0.13939532    -0.08100
C345        C  0.51839636  0.07372449  0.13015964     0.30700
C346        C  0.47955763  0.07444415  0.13139177    -0.20100
C347        C  0.46079664  0.10568562  0.14171952    -0.08200
C348        C  0.48181308  0.13580099  0.15185196     0.30700
F349        F  0.46508247  0.16613351  0.16289346    -0.18700
H350        H  0.53590126  0.15884239  0.15825723     0.19100
H351        H  0.46415131  0.05072965  0.12373641     0.19100
F352        F  0.53528692  0.04325370  0.11951539    -0.18700
C353        C  0.70750675  0.24204661  0.13317866    -0.20100
C354        C  0.70848376  0.21410119  0.15439005    -0.08100
C355        C  0.73357398  0.21760794  0.17724626     0.30700
C356        C  0.76048904  0.24542198  0.17650661    -0.20100
C357        C  0.76299445  0.27002864  0.15302854    -0.08200
C358        C  0.73453915  0.27003461  0.13249274     0.30700
F359        F  0.73485989  0.29463896  0.11025419    -0.18700
H360        H  0.68783703  0.24050196  0.11573706     0.19100
H361        H  0.78142158  0.24553619  0.19309651     0.19100
F362        F  0.73459441  0.19217608  0.19890114    -0.18700
C363        C  0.52445056  0.82185499  0.13935111    -0.20100
C364        C  0.54502417  0.85368391  0.13169743    -0.08100
C365        C  0.52571814  0.88591473  0.12362051     0.30700
C366        C  0.48683675  0.88574426  0.12263791    -0.20100
C367        C  0.46634640  0.85371525  0.12998192    -0.08200
C368        C  0.48566670  0.82178504  0.13863891     0.30700
F369        F  0.46725205  0.79033293  0.14647557    -0.18700
H370        H  0.53840943  0.79674280  0.14588580     0.19100
H371        H  0.47274931  0.91085837  0.11626581     0.19100
F372        F  0.54419984  0.91771667  0.11686041    -0.18700
C373        C  0.90799845  0.49520242  0.12138874    -0.20100
C374        C  0.87647388  0.51456713  0.13080016    -0.08100
C375        C  0.84477227  0.49427508  0.13956855     0.33100
C376        C  0.84474410  0.45569355  0.13898758    -0.20100
C377        C  0.87620544  0.43626758  0.12972761    -0.08200
C378        C  0.90796191  0.45640866  0.12085254     0.30700
F379        F  0.93893995  0.43876745  0.11163183    -0.18700
H380        H  0.93275039  0.51006963  0.11449832     0.19100
H381        H  0.81996949  0.44100477  0.14605699     0.19100
F382        F  0.81366424  0.51154670  0.14895091    -0.18700
C383        C  0.74409599  0.68714856  0.12091125    -0.20100
C384        C  0.76429948  0.68023285  0.14606201    -0.08100
C385        C  0.75429811  0.69882928  0.17139706     0.30700
C386        C  0.72803571  0.72713740  0.17046717    -0.20100
C387        C  0.71118675  0.73717459  0.14440552    -0.08200
C388        C  0.71791523  0.71545821  0.11993854     0.30700
F389        F  0.70195950  0.72365947  0.09434645    -0.18700
H390        H  0.75087593  0.67291692  0.10116510     0.19100
H391        H  0.72283697  0.74289229  0.18976971     0.19100
F392        F  0.77188679  0.69176345  0.19653874    -0.18700
C393        C  0.29038394  0.07710786  0.27135710    -0.20100
C394        C  0.32230407  0.06586000  0.28613540    -0.08100
C395        C  0.35150017  0.04974318  0.27033223     0.30700
C396        C  0.35015225  0.04873631  0.24023915    -0.20100
C397        C  0.32000202  0.06407001  0.22535732    -0.08200
C398        C  0.28921056  0.07650073  0.24133535     0.30700
F399        F  0.25933320  0.09142015  0.22807616    -0.18700
H400        H  0.26735762  0.08935161  0.28287624     0.19100
H401        H  0.37413879  0.03872497  0.22855650     0.19100
F402        F  0.38278267  0.03799880  0.28357201    -0.18700
C403        C  0.07258643  0.33620499  0.26263243    -0.20100
C404        C  0.08520576  0.30514285  0.27808640    -0.08100
C405        C  0.09433381  0.27301991  0.26266885     0.30700
C406        C  0.09495422  0.27356393  0.23254021    -0.20100
C407        C  0.08602941  0.30586962  0.21706448    -0.08200
C408        C  0.07279074  0.33660195  0.23245590     0.30700
F409        F  0.06308563  0.36823434  0.21854164    -0.18700
H410        H  0.06502632  0.36121907  0.27383018     0.19100
H411        H  0.10484925  0.24934560  0.22137541     0.19100
F412        F  0.10570630  0.24194482  0.27654811    -0.18700
C413        C  0.26974374  0.28077064  0.37105907    -0.20100
C414        C  0.24569782  0.28122980  0.34745281    -0.08100
C415        C  0.25371512  0.25860292  0.32376313     0.30700
C416        C  0.28189912  0.23235193  0.32562501    -0.20100
C417        C  0.30203016  0.22799539  0.35116409    -0.08200
C418        C  0.29752146  0.25413559  0.37311306     0.30700
F419        F  0.31754523  0.25191406  0.39764526    -0.18700
H420        H  0.26471583  0.29849617  0.38933408     0.19100
H421        H  0.28529898  0.21300463  0.30815916     0.19100
F422        F  0.23212130  0.25921724  0.29998166    -0.18700
C423        C  0.36008598  0.92019574  0.22750840    -0.20100
C424        C  0.32829142  0.90829388  0.21278936    -0.08100
C425        C  0.29557516  0.90140326  0.22883497     0.30700
C426        C  0.29632321  0.90116964  0.25897448    -0.20100
C427        C  0.32958072  0.90779658  0.27373881    -0.08200
C428        C  0.36084580  0.91999659  0.25767937     0.30700
F429        F  0.39331861  0.92816451  0.27084909    -0.18700
H430        H  0.38551495  0.92637830  0.21578513     0.19100
H431        H  0.27153100  0.89269157  0.27067067     0.19100
F432        F  0.26362475  0.89161590  0.21555940    -0.18700
C433        C  0.09700980  0.68857119  0.26740664    -0.20100
C434        C  0.09128737  0.65479601  0.28213881    -0.08100
C435        C  0.07893714  0.62400102  0.26639606     0.30700
C436        C  0.07669302  0.62595006  0.23641022    -0.20100
C437        C  0.08712712  0.65834738  0.22136421    -0.08200
C438        C  0.09497307  0.69045023  0.23729282     0.30700
F439        F  0.10367938  0.72289155  0.22382633    -0.18700
H440        H  0.10590142  0.71291252  0.27894569     0.19100
H441        H  0.06988758  0.60095592  0.22487041     0.19100
F442        F  0.07196861  0.59098740  0.27959473    -0.18700
C443        C  0.16551484  0.45796075  0.36904869    -0.20100
C444        C  0.13137058  0.43943685  0.37245971    -0.08100
C445        C  0.09916517  0.46033768  0.37757324     0.30700
C446        C  0.10130972  0.49911361  0.37823729    -0.20100
C447        C  0.13547989  0.51755857  0.37386233    -0.08200
C448        C  0.16765778  0.49640126  0.36962604     0.30700
F449        F  0.20136283  0.51269580  0.36554942    -0.18700
H450        H  0.19084883  0.44268148  0.36538848     0.19100
H451        H  0.07611132  0.51471682  0.38159385     0.19100
F452        F  0.06562347  0.44354931  0.38132408    -0.18700
C453        C  0.26352243  0.69965687  0.32766578    -0.20100
C454        C  0.25357143  0.68393055  0.35441814    -0.08100
C455        C  0.27504188  0.69259460  0.37863526     0.30700
C456        C  0.30219244  0.72030552  0.37675027    -0.20100
C457        C  0.30816683  0.73995220  0.35088236    -0.08200
C458        C  0.29078428  0.72733445  0.32580262     0.30700
F459        F  0.29759994  0.74388544  0.29996090    -0.18700
H460        H  0.24818290  0.69270677  0.30850762     0.19100
H461        H  0.31594789  0.72874125  0.39627805     0.19100
F462        F  0.26743374  0.67713244  0.40476342    -0.18700
C463        C  0.93308673  0.32979943  0.26396309    -0.20100
C464        C  0.91809025  0.29950443  0.27941305    -0.08100
C465        C  0.90736533  0.26776380  0.26411485     0.30700
C466        C  0.90783487  0.26803129  0.23401535    -0.20100
C467        C  0.91890829  0.29987863  0.21851702    -0.08200
C468        C  0.93339978  0.33013431  0.23381695     0.30700
F469        F  0.94512695  0.36125389  0.21980857    -0.18700
H470        H  0.94171875  0.35454159  0.27510290     0.19100
H471        H  0.89678901  0.24422354  0.22291525     0.19100
F472        F  0.89359647  0.23744896  0.27810557    -0.18700
C473        C  0.71098360  0.06760847  0.26687358    -0.20100
C474        C  0.67876640  0.05832702  0.28270727    -0.08100
C475        C  0.64800195  0.04400318  0.26782166     0.30700
C476        C  0.64836078  0.04283686  0.23766127    -0.20100
C477        C  0.67917127  0.05611106  0.22174930    -0.08200
C478        C  0.71133372  0.06649007  0.23678487     0.30700
F479        F  0.74205576  0.07895154  0.22253134    -0.18700
H480        H  0.73520924  0.07838152  0.27768044     0.19100
H481        H  0.62327802  0.03445041  0.22676003     0.19100
F482        F  0.61619972  0.03466100  0.28204586    -0.18700
C483        C  0.52133547  0.07752767  0.38073034    -0.20100
C484        C  0.54171203  0.10855331  0.37091440    -0.08100
C485        C  0.52249208  0.14030597  0.36187395     0.30700
C486        C  0.48392450  0.14110680  0.36299960    -0.20100
C487        C  0.46342445  0.11028031  0.37279524    -0.08200
C488        C  0.48246846  0.07822013  0.38157462     0.30700
F489        F  0.46373818  0.04752617  0.39073732    -0.18700
H490        H  0.53545870  0.05266484  0.38764427     0.19100
H491        H  0.47007776  0.16599819  0.35581499     0.19100
F492        F  0.54078457  0.17066225  0.35156405    -0.18700
C493        C  0.75039842  0.25610060  0.32625525    -0.20100
C494        C  0.75623477  0.27755297  0.35083184    -0.08100
C495        C  0.73151595  0.27373202  0.37428252     0.30700
C496        C  0.70493423  0.24537213  0.37457354    -0.20100
C497        C  0.70273285  0.22059195  0.35156238    -0.08200
C498        C  0.72394943  0.22777828  0.32654841     0.30700
F499        F  0.72182627  0.20530804  0.30337820    -0.18700
H500        H  0.76857922  0.25890307  0.30767368     0.19100
H501        H  0.68837502  0.24088557  0.39386441     0.19100
F502        F  0.73517259  0.29506579  0.39796341    -0.18700
C503        C  0.72031947  0.88896128  0.23136401    -0.20100
C504        C  0.68839989  0.89963179  0.21630292    -0.08100
C505        C  0.65855950  0.91482275  0.23191545     0.30700
C506        C  0.65907866  0.91513318  0.26202218    -0.20100
C507        C  0.68912332  0.90013679  0.27719102    -0.08200
C508        C  0.72072616  0.88898101  0.26148456     0.30700
F509        F  0.75083102  0.87502299  0.27506372    -0.18700
H510        H  0.74389296  0.87756164  0.21996697     0.19100
H511        H  0.63451460  0.92424980  0.27343018     0.19100
F512        F  0.62731995  0.92608868  0.21837437    -0.18700
C513        C  0.52609604  0.88519299  0.37849754    -0.20100
C514        C  0.54570941  0.85740852  0.36395382    -0.08100
C515        C  0.52559866  0.83048377  0.34880293     0.30700
C516        C  0.48690903  0.83103495  0.34862166    -0.20100
C517        C  0.46715367  0.85854785  0.36323776    -0.08200
C518        C  0.48713700  0.88589279  0.37812749     0.30700
F519        F  0.46918917  0.91304560  0.39251560    -0.18700
H520        H  0.54090813  0.90626926  0.39027002     0.19100
H521        H  0.47238243  0.80995781  0.33663930     0.19100
F522        F  0.54323924  0.80398638  0.33347126    -0.18700
C523        C  0.93357726  0.62362318  0.26602825    -0.20100
C524        C  0.92002189  0.65471618  0.28064590    -0.08100
C525        C  0.91070546  0.68639695  0.26438996     0.30700
C526        C  0.91195249  0.68567995  0.23429168    -0.20100
C527        C  0.92192761  0.65332717  0.21964114    -0.08200
C528        C  0.93439165  0.62275683  0.23588489     0.30700
F529        F  0.94418030  0.59078056  0.22284599    -0.18700
H530        H  0.94092336  0.59881781  0.27786690     0.19100
H531        H  0.90218755  0.70963233  0.22248105     0.19100
F532        F  0.89701851  0.71698538  0.27733357    -0.18700
C533        C  0.83827557  0.46144294  0.35504376    -0.20100
C534        C  0.86879277  0.44180219  0.36576756    -0.08100
C535        C  0.89835679  0.46159021  0.37807924     0.30700
C536        C  0.89734968  0.50019171  0.37935541    -0.20100
C537        C  0.86702678  0.51982829  0.36833115    -0.08200
C538        C  0.83724718  0.49999972  0.35633529     0.30700
F539        F  0.80714395  0.51769098  0.34566281    -0.18700
H540        H  0.81504976  0.44695775  0.34559676     0.19100
H541        H  0.92062058  0.51474091  0.38868434     0.19100
F542        F  0.92842267  0.44383299  0.38870470    -0.18700
C543        C  0.75896119  0.71019803  0.32249566    -0.20100
C544        C  0.76202000  0.68786695  0.34722298    -0.08100
C545        C  0.73413858  0.68948641  0.36852791     0.30700
C546        C  0.70721837  0.71706167  0.36707954    -0.20100
C547        C  0.70781456  0.74302670  0.34443648    -0.08200
C548        C  0.73191011  0.73748774  0.32094894     0.30700
F549        F  0.73157047  0.76044993  0.29766793    -0.18700
H550        H  0.77934342  0.70855764  0.30529538     0.19100
H551        H  0.68834246  0.72030632  0.38513634     0.19100
F552        F  0.73509749  0.66722074  0.39216959    -0.18700
O553        O  0.29989078  0.86181801  0.52466269    -0.56600
C554        C  0.28579523  0.87741564  0.93860640     0.76000
O555        O  0.18074120  0.86221772  0.99454076    -0.57800
C556        C  0.28894302  0.87639654  0.54784348     0.76000
C557        C  0.23839079  0.96259064  0.99769770     0.78400
Cd558      Cd  0.24765187  0.88405919  0.49440952     1.37500
O559        O  0.29916980  0.86548126  0.96194832    -0.56600
O560        O  0.26909984  0.94675161  0.49388961    -0.55400
C561        C  0.18817778  0.82812591  0.49698911     0.78300
O562        O  0.20973409  0.94210556  0.49947600    -0.57800
O563        O  0.25404312  0.89206307  0.94038272    -0.56200
O564        O  0.25877017  0.89395538  0.54666871    -0.56200
O565        O  0.22226761  0.82023112  0.99822179    -0.55400
O566        O  0.29817351  0.10036831  0.97266653    -0.56600
C567        C  0.28450230  0.08903034  0.55789999     0.76000
O568        O  0.17755832  0.10182654  0.50198663    -0.57800
C569        C  0.28381449  0.09208464  0.94882007     0.76000
C570        C  0.23777454  0.00299032  0.49991945     0.78400
Cd571      Cd  0.24475691  0.08183027  0.00336517     1.37500
O572        O  0.29504125  0.10544240  0.53507972    -0.56600
O573        O  0.26752499  0.02085514  0.99577526    -0.55400
C574        C  0.18465212  0.13614428  0.00178481     0.78300
O575        O  0.20903810  0.02149709  0.00607628    -0.57800
O576        O  0.25514197  0.06982837  0.55606939    -0.56200
O577        O  0.25090070  0.07967860  0.94976058    -0.56200
O578        O  0.21861355  0.14508363  0.50277609    -0.55400
O579        O  0.87793226  0.68722309  0.96868777    -0.56600
C580        C  0.89914167  0.69524490  0.55440034     0.76000
O581        O  0.96542369  0.77161378  0.99687412    -0.57800
C582        C  0.89572967  0.69557192  0.94596827     0.76000
C583        C  0.85186546  0.79546768  0.49945330     0.78400
Cd584      Cd  0.90608765  0.73497925  0.99981202     1.37500
O585        O  0.88772518  0.68215212  0.53090040    -0.56600
O586        O  0.84359508  0.76228665  0.00612947    -0.55400
C587        C  0.98519791  0.74306473  0.00057778     0.78300
O588        O  0.88565663  0.80151531  0.99342761    -0.57800
O589        O  0.91324506  0.72743340  0.55320517    -0.56200
O590        O  0.91832058  0.72231022  0.94772423    -0.56200
O591        O  0.96828771  0.71269700  0.50431953    -0.55400
O592        O  0.12897670  0.68914721  0.53141250    -0.56600
C593        C  0.11379591  0.69715351  0.94521302     0.76000
O594        O  0.04508871  0.77263151  0.99551247    -0.57800
C595        C  0.11323051  0.70011883  0.55419710     0.76000
C596        C  0.15938069  0.79879370  0.99812154     0.78400
Cd597      Cd  0.10496759  0.73788941  0.99888489     1.37500
O598        O  0.12792611  0.68666828  0.96867643    -0.56600
O599        O  0.16811976  0.76515841  0.50102297    -0.55400
C600        C  0.02579127  0.74367854  0.50034485     0.78300
O601        O  0.12498512  0.80521524  0.49596807    -0.57800
O602        O  0.09560508  0.72691663  0.94597863    -0.56200
O603        O  0.09406175  0.72921207  0.55194917    -0.56200
O604        O  0.04316132  0.71394314  0.00470046    -0.55400
O605        O  0.71117823  0.86112429  0.52979602    -0.56600
C606        C  0.72504720  0.87114046  0.94391105     0.76000
O607        O  0.79718864  0.94003347  0.00610332    -0.57800
C608        C  0.72438380  0.87332168  0.55301992     0.76000
C609        C  0.82309768  0.82442267  0.99879795     0.78400
Cd610      Cd  0.76369807  0.87972816  0.99837343     1.37500
O611        O  0.71333897  0.85611791  0.96702802    -0.56600
O612        O  0.78978174  0.81711629  0.50532404    -0.55400
C613        C  0.76923884  0.95901821  0.49864551     0.78300
O614        O  0.82989813  0.85787487  0.49157873    -0.57800
O615        O  0.75533692  0.88890939  0.94548377    -0.56200
O616        O  0.75615019  0.88833561  0.55140406    -0.56200
O617        O  0.74087925  0.94119541  0.99069184    -0.55400
O618        O  0.70489981  0.09415931  0.97120903    -0.56600
C619        C  0.71724780  0.08399355  0.55589025     0.76000
O620        O  0.79476802  0.01948599  0.00770308    -0.57800
C621        C  0.72059962  0.08769673  0.94734583     0.76000
C622        C  0.81768049  0.13423648  0.50100557     0.78400
Cd623      Cd  0.75841101  0.07820467  0.00181602     1.37500
O624        O  0.70642369  0.09925452  0.53287267    -0.56600
O625        O  0.78386071  0.14209063  0.00503330    -0.55400
C626        C  0.76799563  0.99938919  0.99944681     0.78300
O627        O  0.82481577  0.10022414  0.99795147    -0.57800
O628        O  0.74737407  0.06632342  0.55432492    -0.56200
O629        O  0.75430754  0.07821436  0.94832028    -0.56200
O630        O  0.73867627  0.01588931  0.49221383    -0.55400
O631        O  0.89382065  0.67776744  0.82479399    -0.56600
C632        C  0.88932581  0.67581118  0.91889402     0.76000
O633        O  0.80159361  0.64604355  0.87319019    -0.57800
C634        C  0.90893392  0.65138877  0.81143356     0.76000
C635        C  0.86752720  0.56072646  0.86823113     0.78400
Cd636      Cd  0.86949403  0.63983457  0.86534304     1.37500
O637        O  0.90743432  0.68271221  0.89597076    -0.56600
O638        O  0.89435259  0.57898734  0.87863678    -0.55400
C639        C  0.79731880  0.66868105  0.85260801     0.78300
O640        O  0.84151258  0.57935751  0.85726515    -0.57800
O641        O  0.86433782  0.65136852  0.91728594    -0.56200
O642        O  0.91069827  0.62090904  0.82502351    -0.56200
O643        O  0.82586362  0.67625874  0.83773013    -0.55400
O644        O  0.70750260  0.86956194  0.82109013    -0.56600
C645        C  0.70473447  0.86733424  0.91661557     0.76000
O646        O  0.60429183  0.82767003  0.85707727    -0.57800
C647        C  0.68416362  0.88946660  0.80804611     0.76000
C648        C  0.69005446  0.77911333  0.84857857     0.78400
Cd649      Cd  0.66677733  0.85269290  0.86228969     1.37500
O650        O  0.71355986  0.88500394  0.89388769    -0.56600
O651        O  0.70053883  0.80716993  0.83427320    -0.55400
C652        C  0.58682688  0.85646967  0.86424369     0.78300
O653        O  0.66646766  0.78464796  0.86834462    -0.57800
O654        O  0.67752781  0.84545875  0.91462550    -0.56200
O655        O  0.65465798  0.89662677  0.82191065    -0.56200
O656        O  0.60647312  0.88416420  0.87129194    -0.55400
O657        O  0.64830295  0.06120964  0.82939510    -0.56600
C658        C  0.70064759  0.09176931  0.92000283     0.76000
O659        O  0.66743756  0.17552255  0.87879600    -0.57800
C660        C  0.67534986  0.07037454  0.81318060     0.76000
C661        C  0.58263730  0.10794298  0.86993697     0.78400
Cd662      Cd  0.66185081  0.10897056  0.86683096     1.37500
O663        O  0.71588931  0.08639446  0.89580407    -0.56600
O664        O  0.60100350  0.07937080  0.87668361    -0.55400
C665        C  0.68460725  0.18412603  0.85583380     0.78300
O666        O  0.60123484  0.13620097  0.86215974    -0.57800
O667        O  0.66716183  0.10160843  0.91954108    -0.56200
O668        O  0.69816211  0.09326746  0.82359867    -0.56200
O669        O  0.68827474  0.15871578  0.83764303    -0.55400
O670        O  0.89507342  0.26986273  0.89125080    -0.56600
C671        C  0.90646407  0.30424308  0.80987379     0.76000
O672        O  0.80215370  0.31092465  0.87739300    -0.57800
C673        C  0.88607434  0.28293352  0.91546845     0.76000
C674        C  0.86894947  0.40091919  0.86426014     0.78400
Cd675      Cd  0.86715732  0.32153254  0.86237077     1.37500
O676        O  0.88362814  0.28208618  0.82176684    -0.56600
O677        O  0.89514904  0.38170576  0.87440279    -0.55400
C678        C  0.79200305  0.29723128  0.85380810     0.78300
O679        O  0.84244892  0.38323082  0.85297713    -0.57800
O680        O  0.91547780  0.33237570  0.82439443    -0.56200
O681        O  0.87134735  0.31450395  0.91513691    -0.56200
O682        O  0.81564447  0.29813447  0.83361889    -0.55400
O683        O  0.10777587  0.68673453  0.89425649    -0.56600
C684        C  0.10415708  0.65023836  0.81238639     0.76000
O685        O  0.20618508  0.65194853  0.88178612    -0.57800
C686        C  0.11977664  0.67622575  0.91852061     0.76000
C687        C  0.13750758  0.55854593  0.87252756     0.78400
Cd688      Cd  0.14214666  0.63783159  0.86651700     1.37500
O689        O  0.11631793  0.67712697  0.82697997    -0.56600
O690        O  0.10966846  0.57867266  0.87794754    -0.55400
C691        C  0.21754334  0.66443563  0.85783536     0.78300
O692        O  0.16713478  0.57535868  0.86523964    -0.57800
O693        O  0.10637600  0.61866769  0.82418814    -0.56200
O694        O  0.13868374  0.64698750  0.91872178    -0.56200
O695        O  0.19497556  0.66194182  0.83729988    -0.55400
O696        O  0.30780804  0.87619522  0.81679295    -0.56600
C697        C  0.30621278  0.87323620  0.91107565     0.76000
O698        O  0.33794330  0.79018718  0.87507075    -0.57800
C699        C  0.33320543  0.89474835  0.80415852     0.76000
C700        C  0.42602413  0.85797178  0.86230442     0.78400
Cd701      Cd  0.34634888  0.85444377  0.85807647     1.37500
O702        O  0.29224090  0.88041539  0.88675724    -0.56600
O703        O  0.40624752  0.88493645  0.87037249    -0.55400
C704        C  0.32554832  0.77721096  0.85194100     0.78300
O705        O  0.40873880  0.83002518  0.85289808    -0.57800
O706        O  0.33891467  0.86100051  0.91067174    -0.56200
O707        O  0.36305480  0.89835631  0.81802145    -0.56200
O708        O  0.32546922  0.79924104  0.83066404    -0.55400
O709        O  0.11021817  0.28248668  0.82284652    -0.56600
C710        C  0.11580855  0.28103994  0.91644814     0.76000
O711        O  0.20074117  0.31816950  0.87219142    -0.57800
C712        C  0.09567948  0.30885500  0.80889949     0.76000
C713        C  0.13056916  0.39873807  0.86962305     0.78400
Cd714      Cd  0.13345752  0.32030256  0.86295769     1.37500
O715        O  0.10554198  0.26808605  0.89259164    -0.56600
O716        O  0.10138741  0.37936135  0.87352597    -0.55400
C717        C  0.20891330  0.29863559  0.85071689     0.78300
O718        O  0.15971028  0.38147688  0.86263426    -0.57800
O719        O  0.13120777  0.31240175  0.91554476    -0.56200
O720        O  0.09396237  0.33950756  0.82181953    -0.56200
O721        O  0.18272276  0.29169545  0.83371805    -0.55400
O722        O  0.29154150  0.08804175  0.89745200    -0.56600
C723        C  0.32739991  0.07797642  0.81627407     0.76000
O724        O  0.32778652  0.18143491  0.88205821    -0.57800
C725        C  0.30425676  0.09779423  0.92156329     0.76000
C726        C  0.42241949  0.11226212  0.87263271     0.78400
Cd727      Cd  0.34338389  0.11731577  0.86862403     1.37500
O728        O  0.30344710  0.09771436  0.82886745    -0.56600
O729        O  0.40186394  0.08509446  0.87985013    -0.55400
C730        C  0.32087875  0.19257398  0.85684604     0.78300
O731        O  0.40607159  0.14148073  0.86466399    -0.57800
O732        O  0.35711599  0.07229620  0.82989694    -0.56200
O733        O  0.33551327  0.11374913  0.92113592    -0.56200
O734        O  0.32758910  0.17001985  0.83692974    -0.55400
O735        O  0.87709276  0.26996633  0.52998851    -0.56600
C736        C  0.89134800  0.26246544  0.94267958     0.76000
O737        O  0.96119087  0.18808330  0.00052108    -0.57800
C738        C  0.89536478  0.26041549  0.55192839     0.76000
C739        C  0.84655996  0.16339438  0.99969931     0.78400
Cd740      Cd  0.90174778  0.22312284  0.99696189     1.37500
O741        O  0.88454742  0.27715717  0.96673375    -0.56600
O742        O  0.83838337  0.19711829  0.50255078    -0.55400
C743        C  0.98082657  0.21669091  0.49493393     0.78300
O744        O  0.88063568  0.15653515  0.49534730    -0.57800
O745        O  0.90197075  0.22915495  0.94335283    -0.56200
O746        O  0.91692044  0.23323491  0.54890289    -0.56200
O747        O  0.96375491  0.24619282  0.98933246    -0.55400
O748        O  0.12331228  0.27422089  0.96713735    -0.56600
C749        C  0.10869878  0.26432156  0.55295465     0.76000
O750        O  0.04060507  0.18850591  0.00124489    -0.57800
C751        C  0.11098890  0.26102442  0.94394723     0.76000
C752        C  0.15558985  0.16484176  0.50047137     0.78400
Cd753      Cd  0.10056361  0.22403686  0.99908788     1.37500
O754        O  0.12052603  0.27679135  0.52906975    -0.56600
O755        O  0.16409230  0.19869381  0.99859558    -0.55400
C756        C  0.02135947  0.21698704  0.99593268     0.78300
O757        O  0.12117128  0.15730448  0.00125975    -0.57800
O758        O  0.09280014  0.23302014  0.55242580    -0.56200
O759        O  0.09493835  0.22982750  0.94575874    -0.56200
O760        O  0.03875065  0.24721732  0.49216797    -0.55400
O761        O  0.90642642  0.68580972  0.60552258    -0.56600
C762        C  0.91193290  0.64932854  0.68874121     0.76000
O763        O  0.80974969  0.64433574  0.62097511    -0.57800
C764        C  0.89465729  0.67427771  0.58161087     0.76000
C765        C  0.87667200  0.55553872  0.63159464     0.78400
Cd766      Cd  0.87492871  0.63510080  0.63481759     1.37500
O767        O  0.89470611  0.67446893  0.67529279    -0.56600
O768        O  0.90499517  0.57479258  0.62465300    -0.55400
C769        C  0.79982958  0.66011479  0.64387746     0.78300
O770        O  0.84828905  0.57330197  0.63958168    -0.57800
O771        O  0.91674776  0.61943422  0.67526619    -0.56200
O772        O  0.87745242  0.64379348  0.58224664    -0.56200
O773        O  0.82357211  0.66094578  0.66367411    -0.55400
O774        O  0.70787806  0.86866877  0.67319944    -0.56600
C775        C  0.70415051  0.86870288  0.58044471     0.76000
O776        O  0.67700197  0.78384863  0.61888833    -0.57800
C777        C  0.68362017  0.88765330  0.68614055     0.76000
C778        C  0.58631670  0.85251313  0.63232592     0.78400
Cd779      Cd  0.66662566  0.84849454  0.63382349     1.37500
O780        O  0.71715234  0.87905296  0.60428925    -0.56600
O781        O  0.60651421  0.87960900  0.62427517    -0.55400
C782        C  0.69207687  0.77323783  0.64193122     0.78300
O783        O  0.60334803  0.82385526  0.64074480    -0.57800
O784        O  0.67297063  0.85268075  0.58134474    -0.56200
O785        O  0.65346205  0.89243244  0.67291547    -0.56200
O786        O  0.69230012  0.79638957  0.66211932    -0.55400
O787        O  0.70569538  0.07179963  0.60622137    -0.56600
C788        C  0.67463917  0.06665338  0.69097045     0.76000
O789        O  0.66783296  0.17339996  0.62867343    -0.57800
C790        C  0.69656164  0.08815325  0.58316500     0.76000
C791        C  0.58049239  0.10474955  0.63784522     0.78400
Cd792      Cd  0.66030698  0.10586549  0.63764679     1.37500
O793        O  0.70046709  0.08220226  0.67657477    -0.56600
O794        O  0.59902485  0.07710712  0.62940549    -0.55400
C795        C  0.68876871  0.17864007  0.64995273     0.78300
O796        O  0.59906871  0.13293935  0.64521592    -0.57800
O797        O  0.64355547  0.06433910  0.67858588    -0.56200
O798        O  0.66921561  0.10962946  0.58491196    -0.56200
O799        O  0.69423040  0.15093434  0.66602658    -0.55400
O800        O  0.91067573  0.33450816  0.67452019    -0.56600
C801        C  0.89045708  0.27963991  0.57947930     0.76000
O802        O  0.80358839  0.31172826  0.62683237    -0.57800
C803        C  0.90869882  0.30375509  0.68772390     0.76000
C804        C  0.87529877  0.39523455  0.62998273     0.78400
Cd805      Cd  0.87201793  0.31599043  0.63344231     1.37500
O806        O  0.90730889  0.27069157  0.60229306    -0.56600
O807        O  0.90366066  0.37587334  0.62439799    -0.55400
C808        C  0.79863761  0.28924813  0.64753242     0.78300
O809        O  0.84578632  0.37765187  0.63640034    -0.57800
O810        O  0.86785632  0.30592635  0.58153536    -0.56200
O811        O  0.89419253  0.27728019  0.67399843    -0.56200
O812        O  0.82693650  0.28149071  0.66212879    -0.55400
O813        O  0.11291113  0.68194550  0.67672245    -0.56600
C814        C  0.11814722  0.68031626  0.58179997     0.76000
O815        O  0.20317047  0.64788333  0.62909034    -0.57800
C816        C  0.09740171  0.65555484  0.69046138     0.76000
C817        C  0.13372591  0.56337048  0.63252157     0.78400
Cd818      Cd  0.13520556  0.64296950  0.63619173     1.37500
O819        O  0.09955957  0.68735664  0.60432410    -0.56600
O820        O  0.10539622  0.58245757  0.62636786    -0.55400
C821        C  0.20803126  0.67041798  0.64935183     0.78300
O822        O  0.16225046  0.58127125  0.64017330    -0.57800
O823        O  0.14216259  0.65534015  0.58420023    -0.56200
O824        O  0.09483496  0.62519716  0.67719716    -0.56200
O825        O  0.17986377  0.67757146  0.66456258    -0.55400
O826        O  0.30179560  0.88997751  0.59734083    -0.56600
C827        C  0.33167145  0.89565329  0.68250275     0.76000
O828        O  0.34131209  0.78643132  0.62671540    -0.57800
C829        C  0.30942736  0.87180931  0.57494773     0.76000
C830        C  0.42517847  0.85414317  0.62927643     0.78400
Cd831      Cd  0.34504643  0.85497362  0.62979116     1.37500
O832        O  0.36103048  0.90067820  0.66774749    -0.56600
O833        O  0.40728843  0.88230408  0.62085909    -0.55400
C834        C  0.31542016  0.78325060  0.64514649     0.78300
O835        O  0.40586942  0.82637969  0.63716198    -0.57800
O836        O  0.30693933  0.87578950  0.67102629    -0.56200
O837        O  0.33498596  0.84836389  0.57731549    -0.56200
O838        O  0.30474152  0.81276152  0.65681117    -0.55400
O839        O  0.11688191  0.28513445  0.67407094    -0.56600
C840        C  0.11462292  0.28491355  0.57979634     0.76000
O841        O  0.16296935  0.38552760  0.63265630    -0.57800
C842        C  0.09719680  0.30942268  0.68626362     0.76000
C843        C  0.20878647  0.29880059  0.64427950     0.78400
Cd844      Cd  0.13507372  0.32398776  0.63201717     1.37500
O845        O  0.10268955  0.27377518  0.60410760    -0.56600
O846        O  0.18542118  0.30557090  0.66385817    -0.55400
C847        C  0.13353061  0.40327692  0.62757264     0.78300
O848        O  0.19953271  0.30739422  0.61894572    -0.57800
O849        O  0.13318447  0.31462973  0.57966015    -0.56200
O850        O  0.09065760  0.33822745  0.67146891    -0.56200
O851        O  0.10460203  0.38407106  0.62321135    -0.55400
O852        O  0.29957493  0.09175571  0.68098358    -0.56600
C853        C  0.30470458  0.09336494  0.58522197     0.76000
O854        O  0.33999567  0.17876323  0.63505964    -0.57800
C855        C  0.32422082  0.07396918  0.69441665     0.76000
C856        C  0.41970592  0.10707335  0.64107945     0.78400
Cd857      Cd  0.33978423  0.11047141  0.64013445     1.37500
O858        O  0.29646667  0.07517819  0.60783225    -0.56600
O859        O  0.40021512  0.07959862  0.63332362    -0.55400
C860        C  0.31211768  0.18326409  0.65137094     0.78300
O861        O  0.40209458  0.13599813  0.64783963    -0.57800
O862        O  0.33078024  0.11659293  0.58746670    -0.56200
O863        O  0.35423597  0.06852201  0.68082823    -0.56200
O864        O  0.29910161  0.15459258  0.66358272    -0.55400
C865        C  0.24269756  0.25426570  0.67464464    -0.20100
C866        C  0.24267824  0.27767758  0.65038720    -0.08100
C867        C  0.27122697  0.27449785  0.62977587     0.30700
C868        C  0.29664121  0.24554308  0.63185926    -0.20100
C869        C  0.29347231  0.21923101  0.65418291    -0.08200
C870        C  0.26750753  0.22494794  0.67642312     0.30700
F871        F  0.26409380  0.20062982  0.69874327    -0.18700
H872        H  0.22116287  0.25632190  0.69095392     0.19100
H873        H  0.31669816  0.24189536  0.61463736     0.19100
F874        F  0.27294482  0.29760660  0.60661502    -0.18700
C875        C  0.10154206  0.50321752  0.62235510    -0.20100
C876        C  0.13365060  0.52239844  0.63088061    -0.08100
C877        C  0.16552397  0.50197136  0.63792858     0.30700
C878        C  0.16529581  0.46346678  0.63603264    -0.20100
C879        C  0.13322088  0.44423885  0.62767078    -0.08200
C880        C  0.10113767  0.46450703  0.62094019     0.30700
F881        F  0.06928464  0.44707530  0.61326888    -0.18700
H882        H  0.07654945  0.51817228  0.61699989     0.19100
H883        H  0.19024348  0.44862950  0.64170829     0.19100
F884        F  0.19691492  0.51897335  0.64709524    -0.18700
C885        C  0.24600400  0.71575721  0.67610681    -0.20100
C886        C  0.24328334  0.69059686  0.65339032    -0.08100
C887        C  0.27086001  0.69097480  0.63176899     0.30700
C888        C  0.29724387  0.71950524  0.63077091    -0.20100
C889        C  0.29639396  0.74776142  0.65125868    -0.08200
C890        C  0.27228177  0.74422271  0.67508113     0.30700
F891        F  0.27204434  0.76989652  0.69620653    -0.18700
H892        H  0.22572764  0.71543692  0.69344638     0.19100
H893        H  0.31607126  0.72128957  0.61250934     0.19100
F894        F  0.27003200  0.66627786  0.60997567    -0.18700
C895        C  0.52062137  0.13509374  0.65060773    -0.20100
C896        C  0.53937320  0.10438335  0.63938491    -0.08100
C897        C  0.51843297  0.07376489  0.63011534     0.30700
C898        C  0.47959761  0.07448131  0.63136813    -0.20100
C899        C  0.46084432  0.10569902  0.64174482    -0.08200
C900        C  0.48186620  0.13579280  0.65190889     0.30700
F901        F  0.46514159  0.16610000  0.66299823    -0.18700
H902        H  0.53596157  0.15881680  0.65832269     0.19100
H903        H  0.46418692  0.05078443  0.62368613     0.19100
F904        F  0.53531353  0.04331997  0.61941784    -0.18700
C905        C  0.70750951  0.24200388  0.63330395    -0.20100
C906        C  0.70857693  0.21399144  0.65445812    -0.08100
C907        C  0.73373486  0.21744125  0.67727341     0.30700
C908        C  0.76062370  0.24527695  0.67654001    -0.20100
C909        C  0.76304369  0.26995450  0.65310254    -0.08200
C910        C  0.73452355  0.27001041  0.63262061     0.30700
F911        F  0.73476133  0.29468566  0.61042977    -0.18700
H912        H  0.68778611  0.24049960  0.61589655     0.19100
H913        H  0.78160569  0.24535248  0.69309262     0.19100
F914        F  0.73483774  0.19194194  0.69887727    -0.18700
C915        C  0.52449610  0.82195543  0.63954904    -0.20100
C916        C  0.54507538  0.85376406  0.63184899    -0.08100
C917        C  0.52576614  0.88598450  0.62374746     0.30700
C918        C  0.48688029  0.88581766  0.62277592    -0.20100
C919        C  0.46638437  0.85380261  0.63015443    -0.08200
C920        C  0.48570826  0.82189053  0.63884962     0.30700
F921        F  0.46729273  0.79045467  0.64672461    -0.18700
H922        H  0.53845413  0.79685251  0.64610636     0.19100
H923        H  0.47279389  0.91092067  0.61637591     0.19100
F924        F  0.54425030  0.91777003  0.61694224    -0.18700
C925        C  0.90795826  0.49515324  0.62113965    -0.20100
C926        C  0.87648497  0.51451502  0.63066012    -0.08100
C927        C  0.84483383  0.49421984  0.63953604     0.33100
C928        C  0.84480700  0.45564068  0.63896195    -0.20100
C929        C  0.87621951  0.43621669  0.62960320    -0.08200
C930        C  0.90792299  0.45635765  0.62061099     0.30700
F931        F  0.93884708  0.43871460  0.61128291    -0.18700
H932        H  0.93266843  0.51002365  0.61416114     0.19100
H933        H  0.82007444  0.44095180  0.64612210     0.19100
F934        F  0.81377710  0.51148558  0.64902694    -0.18700
C935        C  0.74410042  0.68717016  0.62088542    -0.20100
C936        C  0.76429076  0.68019619  0.64603248    -0.08100
C937        C  0.75430183  0.69876415  0.67138343     0.30700
C938        C  0.72807068  0.72710429  0.67047522    -0.20100
C939        C  0.71123236  0.73719367  0.64442055    -0.08200
C940        C  0.71794661  0.71550649  0.61993541     0.30700
F941        F  0.70201020  0.72376601  0.59434728    -0.18700
H942        H  0.75087507  0.67296567  0.60112623     0.19100
H943        H  0.72288147  0.74283509  0.68979124     0.19100
F944        F  0.77187093  0.69163105  0.69652269    -0.18700
C945        C  0.29036202  0.07714198  0.77130989    -0.20100
C946        C  0.32227300  0.06589550  0.78610194    -0.08100
C947        C  0.35145947  0.04973514  0.77031577     0.30700
C948        C  0.35011475  0.04868324  0.74022439    -0.20100
C949        C  0.31997724  0.06401278  0.72532500    -0.08200
C950        C  0.28918951  0.07648380  0.74128801     0.30700
F951        F  0.25932493  0.09140366  0.72801149    -0.18700
H952        H  0.26734306  0.08941917  0.78281565     0.19100
H953        H  0.37409667  0.03863886  0.72855368     0.19100
F954        F  0.38273031  0.03798430  0.78356818    -0.18700
C955        C  0.07263735  0.33625267  0.76265581    -0.20100
C956        C  0.08525766  0.30520074  0.77812077    -0.08100
C957        C  0.09438252  0.27306576  0.76271705     0.30700
C958        C  0.09498146  0.27358163  0.73258903    -0.20100
C959        C  0.08604797  0.30587347  0.71710031    -0.08200
C960        C  0.07282695  0.33662380  0.73247983     0.30700
F961        F  0.06312732  0.36824906  0.71855300    -0.18700
H962        H  0.06508509  0.36127665  0.77384352     0.19100
H963        H  0.10487106  0.24935381  0.72143373     0.19100
F964        F  0.10577856  0.24200766  0.77660729    -0.18700
C965        C  0.26970155  0.28080386  0.87120566    -0.20100
C966        C  0.24572167  0.28132570  0.84756016    -0.08100
C967        C  0.25380873  0.25877582  0.82384133     0.30700
C968        C  0.28199394  0.23252802  0.82570081    -0.20100
C969        C  0.30204843  0.22809403  0.85126851    -0.08200
C970        C  0.29747442  0.25416541  0.87325945     0.30700
F971        F  0.31741900  0.25186468  0.89782683    -0.18700
H972        H  0.26461476  0.29846923  0.88950663     0.19100
H973        H  0.28544738  0.21323630  0.80820390     0.19100
F974        F  0.23228013  0.25946177  0.80002516    -0.18700
C975        C  0.35995817  0.92028881  0.72750756    -0.20100
C976        C  0.32817906  0.90833731  0.71279094    -0.08100
C977        C  0.29548678  0.90135935  0.72884393     0.30700
C978        C  0.29625402  0.90108805  0.75898207    -0.20100
C979        C  0.32950439  0.90777257  0.77373981    -0.08200
C980        C  0.36073509  0.92005812  0.75767921     0.30700
F981        F  0.39319632  0.92828266  0.77084517    -0.18700
H982        H  0.38536825  0.92653563  0.71577939     0.19100
H983        H  0.27148541  0.89254546  0.77068085     0.19100
F984        F  0.26354726  0.89152373  0.71557411    -0.18700
C985        C  0.09698740  0.68850802  0.76747714    -0.20100
C986        C  0.09128590  0.65473550  0.78221610    -0.08100
C987        C  0.07894873  0.62392815  0.76648082     0.30700
C988        C  0.07669558  0.62586890  0.73649334    -0.20100
C989        C  0.08710568  0.65827068  0.72144069    -0.08200
C990        C  0.09494458  0.69037813  0.73736474     0.30700
F991        F  0.10363859  0.72281946  0.72389449    -0.18700
H992        H  0.10586814  0.71285811  0.77901006     0.19100
H993        H  0.06990021  0.60086924  0.72495730     0.19100
F994        F  0.07200376  0.59091424  0.77968713    -0.18700
C995        C  0.16556722  0.45798865  0.86901534    -0.20100
C996        C  0.13143246  0.43946890  0.87251103    -0.08100
C997        C  0.09925069  0.46037311  0.87770068     0.30700
C998        C  0.10140461  0.49914719  0.87836315    -0.20100
C999        C  0.13556092  0.51758868  0.87391028    -0.08200
C1000       C  0.16771898  0.49642930  0.86958989     0.30700
F1001       F  0.20140924  0.51272123  0.86542677    -0.18700
H1002       H  0.19088392  0.44270655  0.86529024     0.19100
H1003       H  0.07622141  0.51475205  0.88178381     0.19100
F1004       F  0.06572097  0.44358924  0.88153306    -0.18700
C1005       C  0.26363510  0.69962683  0.82779429    -0.20100
C1006       C  0.25360693  0.68398481  0.85455911    -0.08100
C1007       C  0.27502524  0.69270251  0.87879291     0.30700
C1008       C  0.30220393  0.72038557  0.87689843    -0.20100
C1009       C  0.30825635  0.73995187  0.85100445    -0.08200
C1010       C  0.29092813  0.72727264  0.82592168     0.30700
F1011       F  0.29783022  0.74373626  0.80005982    -0.18700
H1012       H  0.24834008  0.69262891  0.80862540     0.19100
H1013       H  0.31591429  0.72887159  0.89643205     0.19100
F1014       F  0.26733543  0.67733085  0.90493893    -0.18700
C1015       C  0.93303804  0.32993280  0.76396305    -0.20100
C1016       C  0.91814223  0.29958885  0.77941230    -0.08100
C1017       C  0.90749749  0.26782428  0.76411096     0.30700
C1018       C  0.90795089  0.26810239  0.73401042    -0.20100
C1019       C  0.91892719  0.29998500  0.71851492    -0.08200
C1020       C  0.93333092  0.33027976  0.73381739     0.30700
F1021       F  0.94495489  0.36143955  0.71981256    -0.18700
H1022       H  0.94160249  0.35469677  0.77510470     0.19100
H1023       H  0.89696950  0.24426691  0.72290820     0.19100
F1024       F  0.89382491  0.23746676  0.77810142    -0.18700
C1025       C  0.71091869  0.06757261  0.76689892    -0.20100
C1026       C  0.67870236  0.05829265  0.78273426    -0.08100
C1027       C  0.64793313  0.04397931  0.76784855     0.30700
C1028       C  0.64828917  0.04281789  0.73768719    -0.20100
C1029       C  0.67910263  0.05608413  0.72177398    -0.08200
C1030       C  0.71126634  0.06645945  0.73680982     0.30700
F1031       F  0.74198490  0.07893124  0.72255722    -0.18700
H1032       H  0.73514617  0.07834209  0.77770552     0.19100
H1033       H  0.62320499  0.03443617  0.72678577     0.19100
F1034       F  0.61612931  0.03464567  0.78207389    -0.18700
C1035       C  0.52125615  0.07756748  0.88070810    -0.20100
C1036       C  0.54164985  0.10860527  0.87093912    -0.08100
C1037       C  0.52244581  0.14038781  0.86193955     0.30700
C1038       C  0.48387622  0.14120278  0.86305882    -0.20100
C1039       C  0.46336122  0.11036038  0.87280523    -0.08200
C1040       C  0.48239028  0.07827417  0.88154460     0.30700
F1041       F  0.46364502  0.04756424  0.89065494    -0.18700
H1042       H  0.53536537  0.05268150  0.88758853     0.19100
H1043       H  0.47004000  0.16611537  0.85590667     0.19100
F1044       F  0.54075588  0.17075781  0.85167383    -0.18700
C1045       C  0.75044623  0.25599228  0.82622356    -0.20100
C1046       C  0.75628732  0.27746567  0.85078893    -0.08100
C1047       C  0.73156956  0.27366753  0.87424222     0.30700
C1048       C  0.70499102  0.24530626  0.87455181    -0.20100
C1049       C  0.70277967  0.22050997  0.85155232    -0.08200
C1050       C  0.72399175  0.22767386  0.82653226     0.30700
F1051       F  0.72185496  0.20518975  0.80337093    -0.18700
H1052       H  0.76862185  0.25878207  0.80763797     0.19100
H1053       H  0.68843493  0.24083756  0.89384663     0.19100
F1054       F  0.73522786  0.29502040  0.89791241    -0.18700
C1055       C  0.72042334  0.88885869  0.73144020    -0.20100
C1056       C  0.68856576  0.89966648  0.71636012    -0.08100
C1057       C  0.65877379  0.91497604  0.73195551     0.30700
C1058       C  0.65925028  0.91524367  0.76206506    -0.20100
C1059       C  0.68921470  0.90010852  0.77724858    -0.08200
C1060       C  0.72079471  0.88885254  0.76155985     0.30700
F1061       F  0.75082715  0.87475991  0.77515188    -0.18700
H1062       H  0.74396323  0.87737044  0.72005665     0.19100
H1063       H  0.63471198  0.92445154  0.77346036     0.19100
F1064       F  0.62761292  0.92640950  0.71839022    -0.18700
C1065       C  0.52609292  0.88522497  0.87849508    -0.20100
C1066       C  0.54569462  0.85742069  0.86396441    -0.08100
C1067       C  0.52557557  0.83049806  0.84881814     0.30700
C1068       C  0.48688993  0.83106299  0.84863511    -0.20100
C1069       C  0.46714604  0.85858983  0.86324138    -0.08200
C1070       C  0.48713451  0.88593899  0.87812183     0.30700
F1071       F  0.46919220  0.91310239  0.89250235    -0.18700
H1072       H  0.54091254  0.90630140  0.89026179     0.19100
H1073       H  0.47235727  0.80998390  0.83665895     0.19100
F1074       F  0.54320352  0.80398400  0.83349556    -0.18700
C1075       C  0.93362750  0.62366961  0.76598054    -0.20100
C1076       C  0.92003477  0.65475197  0.78059153    -0.08100
C1077       C  0.91063897  0.68639902  0.76432379     0.30700
C1078       C  0.91185021  0.68565448  0.73422469    -0.20100
C1079       C  0.92187061  0.65330710  0.71958407    -0.08200
C1080       C  0.93440539  0.62277473  0.73583689     0.30700
F1081       F  0.94424447  0.59080697  0.72280867    -0.18700
H1082       H  0.94103436  0.59888966  0.77782761     0.19100
H1083       H  0.90202861  0.70957833  0.72240827     0.19100
F1084       F  0.89691397  0.71697606  0.77725997    -0.18700
C1085       C  0.83832048  0.46143644  0.85489532    -0.20100
C1086       C  0.86879767  0.44179077  0.86568386    -0.08100
C1087       C  0.89833297  0.46157710  0.87803614     0.30700
C1088       C  0.89733962  0.50017916  0.87929037    -0.20100
C1089       C  0.86705440  0.51982185  0.86821129    -0.08200
C1090       C  0.83730107  0.49999697  0.85617235     0.30700
F1091       F  0.80723432  0.51769491  0.84544480    -0.18700
H1092       H  0.81511777  0.44695198  0.84541449     0.19100
H1093       H  0.92058741  0.51472332  0.88865740     0.19100
F1094       F  0.92835589  0.44381596  0.88873024    -0.18700
C1095       C  0.75897492  0.71019375  0.82250631    -0.20100
C1096       C  0.76204299  0.68785137  0.84722701    -0.08100
C1097       C  0.73413583  0.68941627  0.86851527     0.30700
C1098       C  0.70717291  0.71694969  0.86705992    -0.20100
C1099       C  0.70774865  0.74292683  0.84442452    -0.08200
C1100       C  0.73187695  0.73743545  0.82094899     0.30700
F1101       F  0.73152872  0.76040746  0.79767378    -0.18700
H1102       H  0.77937582  0.70859694  0.80531642     0.19100
H1103       H  0.68827013  0.72015060  0.88510507     0.19100
F1104       F  0.73509067  0.66712338  0.89214157    -0.18700
loop_ 
_geom_bond_atom_site_label_1 
_geom_bond_atom_site_label_2 
_geom_bond_distance 
_geom_bond_site_symmetry_2 
_ccdc_geom_bond_type 
O1            C4   1.266       .  A
O1           Cd6   2.492   1_554  S
C2           O11   1.266       .  A
C2            O7   1.265       .  A
C2          C145   1.481       .  S
O3          C561   1.266       .  A
O3         Cd558   2.533       .  S
C4           O12   1.264       .  A
C4          C277   1.475       .  S
C5          O562   1.269       .  A
C5          O560   1.262       .  A
C5          C570   1.463   1_565  S
Cd6          O12   2.495   1_556  S
Cd6          O10   2.522       .  S
Cd6           O8   2.388       .  S
Cd6         O555   2.533       .  S
Cd6         O565   2.480       .  S
Cd6         O563   2.534       .  S
Cd6         O559   2.481       .  S
O7         Cd558   2.481       .  S
O8          C557   1.262       .  A
C9          O555   1.266       .  A
C9          O565   1.264       .  A
C9          C596   1.480       .  S
O10         C557   1.269       .  A
O11        Cd558   2.534       .  S
O13         C561   1.264       .  A
O13        Cd558   2.480       .  S
O14          C17   1.266       .  A
O14         Cd19   2.472       .  S
C15          O24   1.265       .  A
C15          O20   1.265       .  A
C15         C301   1.479       .  S
O16         C574   1.267       .  A
O16        Cd571   2.533       .  S
C17          O25   1.265       .  A
C17         C173   1.473       .  S
C18         O575   1.269   1_556  A
C18         O573   1.261       .  A
C18         C557   1.463   1_545  S
Cd19         O25   2.503       .  S
Cd19         O23   2.526       .  S
Cd19         O21   2.385       .  S
Cd19        O568   2.533       .  S
Cd19        O578   2.476       .  S
Cd19        O576   2.516       .  S
Cd19        O572   2.495       .  S
O20        Cd571   2.495       .  S
O21         C570   1.261       .  A
C22         O568   1.267       .  A
C22         O578   1.264       .  A
C22         C752   1.479       .  S
O23         C570   1.269       .  A
O24        Cd571   2.517       .  S
O26         C574   1.264       .  A
O26        Cd571   2.476       .  S
O27          C30   1.264       .  A
O27         Cd32   2.480       .  S
C28          O37   1.267       .  A
C28          O33   1.266       .  A
C28         C212   1.476       .  S
O29          C35   1.269       .  A
O29         Cd32   2.509       .  S
C30          O38   1.263       .  A
C30          C80   1.473       .  S
C31         O588   1.266       .  A
C31         O586   1.263   1_556  A
C31         C609   1.481       .  S
Cd32         O38   2.506       .  S
Cd32         O36   2.535       .  S
Cd32         O34   2.480       .  S
Cd32        O591   2.398       .  S
Cd32        O589   2.512       .  S
Cd32        O585   2.470       .  S
O33        Cd584   2.470   1_554  S
O34         C583   1.263       .  A
C35         O591   1.262       .  A
C35         C600   1.463   1_655  S
O36         C583   1.266       .  A
O37        Cd584   2.512   1_554  S
O39         C587   1.262       .  A
O39        Cd584   2.398   1_554  S
O40          C43   1.266       .  A
O40        Cd597   2.474   1_554  S
C41          O50   1.264       .  A
C41          O46   1.264       .  A
C41         C134   1.475       .  S
O42         C600   1.269       .  A
O42         Cd45   2.509       .  S
C43          O51   1.266       .  A
C43         C262   1.476       .  S
C44         O601   1.267       .  A
C44         O599   1.263       .  A
C44         C561   1.480       .  S
Cd45         O52   2.396       .  S
Cd45         O50   2.522       .  S
Cd45         O46   2.478       .  S
Cd45        O592   2.475       .  S
Cd45        O603   2.513       .  S
Cd45        O601   2.537       .  S
Cd45        O599   2.478       .  S
O47         C596   1.263   1_554  A
O47        Cd597   2.477   1_554  S
C48         O594   1.269   1_554  A
C48         O604   1.263       .  A
C48         C587   1.463   1_455  S
O49         C596   1.267       .  A
O49        Cd597   2.537       .  S
O51        Cd597   2.512   1_554  S
O52         C600   1.263       .  A
O53          C56   1.266       .  A
O53        Cd610   2.468   1_554  S
C54          O63   1.265       .  A
C54          O59   1.268       .  A
C54          C93   1.478       .  S
O55         C613   1.270       .  A
O55         Cd58   2.514       .  S
C56          O64   1.265       .  A
C56         C223   1.471       .  S
C57         O614   1.268       .  A
C57         O612   1.263       .  A
C57         C583   1.481       .  S
Cd58         O65   2.398       .  S
Cd58         O63   2.500       .  S
Cd58         O59   2.489       .  S
Cd58        O605   2.468       .  S
Cd58        O616   2.501       .  S
Cd58        O614   2.537       .  S
Cd58        O612   2.479       .  S
O60         C609   1.263   1_554  A
O60        Cd610   2.479   1_554  S
C61         O607   1.270   1_556  A
C61         O617   1.262       .  A
C61         C626   1.464       .  S
O62         C609   1.268       .  A
O62        Cd610   2.537       .  S
O64        Cd610   2.500   1_554  S
O65         C613   1.262       .  A
O66          C69   1.266       .  A
O66         Cd71   2.474       .  S
C67          O76   1.265       .  A
C67          O72   1.265       .  A
C67         C238   1.475       .  S
O68          C74   1.268   1_545  A
O68         Cd71   2.514       .  S
C69          O77   1.265       .  A
C69         C106   1.473       .  S
C70         O627   1.266   1_554  A
C70         O625   1.264       .  A
C70         C739   1.478   1_554  S
Cd71         O77   2.494       .  S
Cd71         O75   2.521       .  S
Cd71         O73   2.484       .  S
Cd71        O630   2.406       .  S
Cd71        O628   2.505       .  S
Cd71        O624   2.484       .  S
O72        Cd623   2.484       .  S
O73         C622   1.264       .  A
C74         O630   1.262   1_565  A
C74         C613   1.464       .  S
O75         C622   1.266       .  A
O76        Cd623   2.505       .  S
O78         C626   1.262   1_545  A
O78        Cd623   2.407   1_556  S
O79          C82   1.266       .  A
O79         Cd84   2.472       .  S
C80          O89   1.260       .  A
C80          O85   1.267       .  A
O81          C87   1.264       .  A
O81         Cd84   2.482       .  S
C82          O90   1.267       .  A
C82         C524   1.489       .  S
C83          O88   1.266       .  A
C83          O86   1.269       .  A
C83         C537   1.478       .  S
Cd84         O91   2.425       .  S
Cd84         O90   2.486       .  S
Cd84         O89   2.461       .  S
Cd84         O85   2.519       .  S
Cd84         O88   2.434       .  S
Cd84         O86   2.456       .  S
C87          O91   1.262       .  A
C87         C544   1.474       .  S
O92          C95   1.265       .  A
O92         Cd97   2.473       .  S
C93         O102   1.260       .  A
C93          O98   1.267       .  A
O94         C100   1.266       .  A
O94         Cd97   2.436       .  S
C95         O103   1.268       .  A
C95         C507   1.489       .  S
C96         O101   1.265       .  A
C96          O99   1.261       .  A
C96         C547   1.472       .  S
Cd97        O104   2.493       .  S
Cd97        O103   2.491       .  S
Cd97        O102   2.480       .  S
Cd97         O98   2.533       .  S
Cd97        O101   2.472       .  S
Cd97         O99   2.434       .  S
C100        O104   1.269       .  A
C100        C514   1.483       .  S
O105        C108   1.267       .  A
O105       Cd110   2.512       .  S
C106        O115   1.260       .  A
C106        O111   1.265       .  A
O107        C113   1.265       .  A
O107       Cd110   2.481       .  S
C108        O116   1.265       .  A
C108        C474   1.490       .  S
C109        O114   1.266       .  A
C109        O112   1.268       .  A
C109        C484   1.477       .  S
Cd110       O117   2.427       .  S
Cd110       O116   2.463       .  S
Cd110       O115   2.473       .  S
Cd110       O111   2.513       .  S
Cd110       O114   2.412       .  S
Cd110       O112   2.470       .  S
C113        O117   1.261       .  A
C113        C497   1.476       .  S
O118        C121   1.266       .  A
O118       Cd123   2.510       .  S
C119        O128   1.268       .  A
C119        O124   1.264       .  A
C119        C464   1.486       .  S
O120        C126   1.264       .  A
O120       Cd123   2.465       .  S
C121        O129   1.261       .  A
C121        C184   1.474       .  S
C122        O127   1.266       .  A
C122        O125   1.267       .  A
C122        C534   1.479       .  S
Cd123       O130   2.448       .  S
Cd123       O129   2.470       .  S
Cd123       O128   2.496       .  S
Cd123       O124   2.448       .  S
Cd123       O127   2.443       .  S
Cd123       O125   2.462       .  S
C126        O130   1.262       .  A
C126        C494   1.476       .  S
O131        C134   1.268       .  A
O131       Cd136   2.523       .  S
C132        O141   1.265       .  A
C132        O137   1.268       .  A
C132        C434   1.489       .  S
O133        C139   1.262       .  A
O133       Cd136   2.471       .  S
C134        O142   1.261       .  A
C135        O140   1.267       .  A
C135        O138   1.268       .  A
C135        C447   1.482       .  S
Cd136       O143   2.478       .  S
Cd136       O142   2.456       .  S
Cd136       O141   2.464       .  S
Cd136       O137   2.503       .  S
Cd136       O140   2.437       .  S
Cd136       O138   2.481       .  S
C139        O143   1.263       .  A
C139        C454   1.481       .  S
O144        C147   1.268       .  A
O144       Cd149   2.504       .  S
C145        O154   1.261       .  A
C145        O150   1.267       .  A
O146        C152   1.262       .  A
O146       Cd149   2.462       .  S
C147        O155   1.265       .  A
C147        C427   1.494       .  S
C148        O153   1.266       .  A
C148        O151   1.269       .  A
C148        C517   1.483       .  S
Cd149       O156   2.493       .  S
Cd149       O155   2.502       .  S
Cd149       O154   2.473       .  S
Cd149       O150   2.543       .  S
Cd149       O153   2.432       .  S
Cd149       O151   2.490       .  S
C152        O156   1.264       .  A
C152        C457   1.481       .  S
O157        C160   1.266       .  A
O157       Cd162   2.472       .  S
C158        O167   1.259       .  A
C158        O163   1.266       .  A
C158        C199   1.472       .  S
O159        C165   1.263       .  A
O159       Cd162   2.467       .  S
C160        O168   1.267       .  A
C160        C404   1.490       .  S
C161        O166   1.266       .  A
C161        O164   1.270       .  A
C161        C444   1.479       .  S
Cd162       O169   2.466       .  S
Cd162       O168   2.490       .  S
Cd162       O167   2.461       .  S
Cd162       O163   2.524       .  S
Cd162       O166   2.399       .  S
Cd162       O164   2.485       .  S
C165        O169   1.262       .  A
C165        C414   1.477       .  S
O170        C173   1.267       .  A
O170       Cd175   2.512       .  S
C171        O180   1.266       .  A
C171        O176   1.267       .  A
C171        C394   1.486       .  S
O172        C178   1.263       .  A
O172       Cd175   2.473       .  S
C173        O181   1.262       .  A
C174        O179   1.266       .  A
C174        O177   1.267       .  A
C174        C487   1.477       .  S
Cd175       O182   2.470       .  S
Cd175       O181   2.458       .  S
Cd175       O180   2.487       .  S
Cd175       O176   2.459       .  S
Cd175       O179   2.421       .  S
Cd175       O177   2.472       .  S
C178        O182   1.263       .  A
C178        C417   1.478       .  S
O183        C186   1.266       .  A
O183       Cd740   2.463   1_554  S
C184        O193   1.266       .  A
C184        O189   1.266       .  A
O185        C743   1.269       .  A
O185       Cd188   2.501       .  S
C186        O194   1.264       .  A
C186        C249   1.473       .  S
C187        O744   1.267       .  A
C187        O742   1.263       .  A
C187        C622   1.478       .  S
Cd188       O195   2.402       .  S
Cd188       O193   2.501       .  S
Cd188       O189   2.480       .  S
Cd188       O735   2.463       .  S
Cd188       O746   2.512       .  S
Cd188       O744   2.522       .  S
Cd188       O742   2.475       .  S
O190        C739   1.263   1_554  A
O190       Cd740   2.476   1_554  S
C191        O737   1.269   1_556  A
C191        O747   1.263       .  A
C191        C756   1.463   1_655  S
O192        C739   1.267       .  A
O192       Cd740   2.522       .  S
O194       Cd740   2.513   1_554  S
O195        C743   1.263       .  A
O196        C199   1.266       .  A
O196       Cd201   2.465       .  S
C197        O206   1.265       .  A
C197        O202   1.264       .  A
C197        C288   1.476       .  S
O198        C204   1.268       .  A
O198       Cd201   2.506       .  S
C199        O207   1.265       .  A
C200        O757   1.267       .  A
C200        O755   1.263   1_554  A
C200        C574   1.479       .  S
Cd201       O207   2.497       .  S
Cd201       O205   2.529       .  S
Cd201       O203   2.471       .  S
Cd201       O760   2.408       .  S
Cd201       O758   2.518       .  S
Cd201       O754   2.477       .  S
O202       Cd753   2.477   1_554  S
O203        C752   1.263       .  A
C204        O760   1.262       .  A
C204        C743   1.462   1_455  S
O205        C752   1.267       .  A
O206       Cd753   2.518   1_554  S
O208        C756   1.262       .  A
O208       Cd753   2.408       .  S
O209        C212   1.267       .  A
O209       Cd214   2.530       .  S
C210        O219   1.266       .  A
C210        O215   1.267       .  A
C210        C527   1.489       .  S
O211        C217   1.263       .  A
O211       Cd214   2.464       .  S
C212        O220   1.260       .  A
C213        O218   1.266       .  A
C213        O216   1.269       .  A
C213        C374   1.483       .  S
Cd214       O221   2.471       .  S
Cd214       O220   2.463       .  S
Cd214       O219   2.483       .  S
Cd214       O215   2.477       .  S
Cd214       O218   2.432       .  S
Cd214       O216   2.487       .  S
C217        O221   1.263       .  A
C217        C384   1.479       .  S
O222        C225   1.266       .  A
O222       Cd227   2.481       .  S
C223        O232   1.261       .  A
C223        O228   1.266       .  A
O224        C230   1.263       .  A
O224       Cd227   2.473       .  S
C225        O233   1.265       .  A
C225        C504   1.487       .  S
C226        O231   1.268       .  A
C226        O229   1.268       .  A
C226        C364   1.487       .  S
Cd227       O234   2.475       .  S
Cd227       O233   2.470       .  S
Cd227       O232   2.452       .  S
Cd227       O228   2.514       .  S
Cd227       O231   2.459       .  S
Cd227       O229   2.488       .  S
C230        O234   1.264       .  A
C230        C387   1.482       .  S
O235        C238   1.266       .  A
O235       Cd240   2.519       .  S
C236        O245   1.266       .  A
C236        O241   1.267       .  A
C236        C477   1.489       .  S
O237        C243   1.264       .  A
O237       Cd240   2.484       .  S
C238        O246   1.261       .  A
C239        O244   1.267       .  A
C239        O242   1.269       .  A
C239        C344   1.483       .  S
Cd240       O247   2.436       .  S
Cd240       O246   2.473       .  S
Cd240       O245   2.481       .  S
Cd240       O241   2.476       .  S
Cd240       O244   2.444       .  S
Cd240       O242   2.469       .  S
C243        O247   1.261       .  A
C243        C354   1.477       .  S
O248        C251   1.266       .  A
O248       Cd253   2.469       .  S
C249        O258   1.259       .  A
C249        O254   1.267       .  A
O250        C256   1.264       .  A
O250       Cd253   2.491       .  S
C251        O259   1.268       .  A
C251        C467   1.487       .  S
C252        O257   1.267       .  A
C252        O255   1.269       .  A
C252        C377   1.481       .  S
Cd253       O260   2.425       .  S
Cd253       O259   2.478       .  S
Cd253       O258   2.451       .  S
Cd253       O254   2.537       .  S
Cd253       O257   2.431       .  S
Cd253       O255   2.470       .  S
C256        O260   1.261       .  A
C256        C357   1.475       .  S
O261        C264   1.267       .  A
O261       Cd266   2.495       .  S
C262        O271   1.259       .  A
C262        O267   1.267       .  A
O263        C269   1.264       .  A
O263       Cd266   2.473       .  S
C264        O272   1.267       .  A
C264        C437   1.489       .  S
C265        O270   1.266       .  A
C265        O268   1.269       .  A
C265        C324   1.483       .  S
Cd266       O273   2.436       .  S
Cd266       O272   2.466       .  S
Cd266       O271   2.465       .  S
Cd266       O267   2.536       .  S
Cd266       O270   2.445       .  S
Cd266       O268   2.478       .  S
C269        O273   1.262       .  A
C269        C334   1.475       .  S
O274        C277   1.266       .  A
O274       Cd279   2.517       .  S
C275        O284   1.265       .  A
C275        O280   1.267       .  A
C275        C424   1.490       .  S
O276        C282   1.265       .  A
O276       Cd279   2.485       .  S
C277        O285   1.260       .  A
C278        O283   1.267       .  A
C278        O281   1.269       .  A
C278        C367   1.485       .  S
Cd279       O286   2.432       .  S
Cd279       O285   2.484       .  S
Cd279       O284   2.475       .  S
Cd279       O280   2.497       .  S
Cd279       O283   2.453       .  S
Cd279       O281   2.474       .  S
C282        O286   1.262       .  A
C282        C337   1.474       .  S
O287        C290   1.267       .  A
O287       Cd292   2.478       .  S
C288        O297   1.261       .  A
C288        O293   1.267       .  A
O289        C295   1.266       .  A
O289       Cd292   2.435       .  S
C290        O298   1.267       .  A
C290        C407   1.490       .  S
C291        O296   1.264       .  A
C291        O294   1.262       .  A
C291        C314   1.473       .  S
Cd292       O299   2.472       .  S
Cd292       O298   2.485       .  S
Cd292       O297   2.464       .  S
Cd292       O293   2.526       .  S
Cd292       O296   2.475       .  S
Cd292       O294   2.443       .  S
C295        O299   1.267       .  A
C295        C327   1.480       .  S
O300        C303   1.265       .  A
O300       Cd305   2.466       .  S
C301        O310   1.261       .  A
C301        O306   1.267       .  A
O302        C308   1.266       .  A
O302       Cd305   2.477       .  S
C303        O311   1.265       .  A
C303        C397   1.485       .  S
C304        O309   1.267       .  A
C304        O307   1.269       .  A
C304        C347   1.484       .  S
Cd305       O312   2.433       .  S
Cd305       O311   2.475       .  S
Cd305       O310   2.482       .  S
Cd305       O306   2.524       .  S
Cd305       O309   2.452       .  S
Cd305       O307   2.473       .  S
C308        O312   1.262       .  A
C308        C317   1.473       .  S
C313        C314   1.404       .  A
C313        C318   1.393       .  A
C313        H320   1.084       .  S
C314        C315   1.406       .  A
C315        C316   1.398       .  A
C315        F322   1.357       .  S
C316        C317   1.404       .  A
C316        H321   1.084       .  S
C317        C318   1.406       .  A
C318        F319   1.358       .  S
C323        C324   1.407       .  A
C323        C328   1.401       .  A
C323        H330   1.083       .  S
C324        C325   1.409       .  A
C325        C326   1.395       .  A
C325        F332   1.357       .  S
C326        C327   1.404       .  A
C326        H331   1.083       .  S
C327        C328   1.408       .  A
C328        F329   1.357       .  S
C333        C334   1.404       .  A
C333        C338   1.393       .  A
C333        H340   1.083       .  S
C334        C335   1.408       .  A
C335        C336   1.398       .  A
C335        F342   1.357       .  S
C336        C337   1.404       .  A
C336        H341   1.084       .  S
C337        C338   1.406       .  A
C338        F339   1.358       .  S
C343        C344   1.406       .  A
C343        C348   1.397       .  A
C343        H350   1.083       .  S
C344        C345   1.408       .  A
C345        C346   1.400       .  A
C345        F352   1.357       .  S
C346        C347   1.406       .  A
C346        H351   1.083       .  S
C347        C348   1.409       .  A
C348        F349   1.358       .  S
C353        C354   1.406       .  A
C353        C358   1.399       .  A
C353        H360   1.083       .  S
C354        C355   1.407       .  A
C355        C356   1.392       .  A
C355        F362   1.358       .  S
C356        C357   1.403       .  A
C356        H361   1.084       .  S
C357        C358   1.407       .  A
C358        F359   1.357       .  S
C363        C364   1.405       .  A
C363        C368   1.398       .  A
C363        H370   1.083       .  S
C364        C365   1.410       .  A
C365        C366   1.402       .  A
C365        F372   1.357       .  S
C366        C367   1.406       .  A
C366        H371   1.083       .  S
C367        C368   1.409       .  A
C368        F369   1.357       .  S
C373        C374   1.407       .  A
C373        C378   1.402       .  A
C373        H380   1.083       .  S
C374        C375   1.408       .  A
C375        C376   1.395       .  A
C375        F382   1.357       .  S
C376        C377   1.404       .  A
C376        H381   1.083       .  S
C377        C378   1.409       .  A
C378        F379   1.357       .  S
C383        C384   1.404       .  A
C383        C388   1.397       .  A
C383        H390   1.084       .  S
C384        C385   1.408       .  A
C385        C386   1.399       .  A
C385        F392   1.358       .  S
C386        C387   1.406       .  A
C386        H391   1.083       .  S
C387        C388   1.409       .  A
C388        F389   1.357       .  S
C393        C394   1.405       .  A
C393        C398   1.398       .  A
C393        H400   1.083       .  S
C394        C395   1.410       .  A
C395        C396   1.402       .  A
C395        F402   1.358       .  S
C396        C397   1.407       .  A
C396        H401   1.083       .  S
C397        C398   1.408       .  A
C398        F399   1.357       .  S
C403        C404   1.407       .  A
C403        C408   1.403       .  A
C403        H410   1.083       .  S
C404        C405   1.410       .  A
C405        C406   1.401       .  A
C405        F412   1.357       .  S
C406        C407   1.406       .  A
C406        H411   1.083       .  S
C407        C408   1.411       .  A
C408        F409   1.357       .  S
C413        C414   1.404       .  A
C413        C418   1.396       .  A
C413        H420   1.084       .  S
C414        C415   1.408       .  A
C415        C416   1.397       .  A
C415        F422   1.358       .  S
C416        C417   1.405       .  A
C416        H421   1.084       .  S
C417        C418   1.407       .  A
C418        F419   1.357       .  S
C423        C424   1.407       .  A
C423        C428   1.404       .  A
C423        H430   1.083       .  S
C424        C425   1.409       .  A
C425        C426   1.402       .  A
C425        F432   1.357       .  S
C426        C427   1.406       .  A
C426        H431   1.083       .  S
C427        C428   1.412       .  A
C428        F429   1.357       .  S
C433        C434   1.407       .  A
C433        C438   1.404       .  A
C433        H440   1.083       .  S
C434        C435   1.410       .  A
C435        C436   1.399       .  A
C435        F442   1.357       .  S
C436        C437   1.405       .  A
C436        H441   1.083       .  S
C437        C438   1.411       .  A
C438        F439   1.357       .  S
C443        C444   1.404       .  A
C443        C448   1.391       .  A
C443        H450   1.083       .  S
C444        C445   1.408       .  A
C445        C446   1.403       .  A
C445        F452   1.358       .  S
C446        C447   1.408       .  A
C446        H451   1.083       .  S
C447        C448   1.407       .  A
C448        F449   1.357       .  S
C453        C454   1.406       .  A
C453        C458   1.399       .  A
C453        H460   1.083       .  S
C454        C455   1.408       .  A
C455        C456   1.397       .  A
C455        F462   1.358       .  S
C456        C457   1.405       .  A
C456        H461   1.084       .  S
C457        C458   1.407       .  A
C458        F459   1.357       .  S
C463        C464   1.406       .  A
C463        C468   1.402       .  A
C463        H470   1.083       .  S
C464        C465   1.409       .  A
C465        C466   1.400       .  A
C465        F472   1.358       .  S
C466        C467   1.406       .  A
C466        H471   1.083       .  S
C467        C468   1.410       .  A
C468        F469   1.357       .  S
C473        C474   1.406       .  A
C473        C478   1.400       .  A
C473        H480   1.083       .  S
C474        C475   1.410       .  A
C475        C476   1.404       .  A
C475        F482   1.357       .  S
C476        C477   1.408       .  A
C476        H481   1.083       .  S
C477        C478   1.409       .  A
C478        F479   1.357       .  S
C483        C484   1.406       .  A
C483        C488   1.401       .  A
C483        H490   1.083       .  S
C484        C485   1.407       .  A
C485        C486   1.391       .  A
C485        F492   1.357       .  S
C486        C487   1.403       .  A
C486        H491   1.083       .  S
C487        C488   1.409       .  A
C488        F489   1.358       .  S
C493        C494   1.404       .  A
C493        C498   1.394       .  A
C493        H500   1.084       .  S
C494        C495   1.407       .  A
C495        C496   1.398       .  A
C495        F502   1.357       .  S
C496        C497   1.404       .  A
C496        H501   1.084       .  S
C497        C498   1.408       .  A
C498        F499   1.358       .  S
C503        C504   1.406       .  A
C503        C508   1.401       .  A
C503        H510   1.083       .  S
C504        C505   1.410       .  A
C505        C506   1.401       .  A
C505        F512   1.357       .  S
C506        C507   1.406       .  A
C506        H511   1.083       .  S
C507        C508   1.411       .  A
C508        F509   1.357       .  S
C513        C514   1.407       .  A
C513        C518   1.404       .  A
C513        H520   1.083       .  S
C514        C515   1.407       .  A
C515        C516   1.394       .  A
C515        F522   1.358       .  S
C516        C517   1.404       .  A
C516        H521   1.083       .  S
C517        C518   1.409       .  A
C518        F519   1.357       .  S
C523        C524   1.407       .  A
C523        C528   1.403       .  A
C523        H530   1.083       .  S
C524        C525   1.410       .  A
C525        C526   1.401       .  A
C525        F532   1.357       .  S
C526        C527   1.406       .  A
C526        H531   1.083       .  S
C527        C528   1.410       .  A
C528        F529   1.357       .  S
C533        C534   1.405       .  A
C533        C538   1.396       .  A
C533        H540   1.083       .  S
C534        C535   1.408       .  A
C535        C536   1.397       .  A
C535        F542   1.357       .  S
C536        C537   1.405       .  A
C536        H541   1.083       .  S
C537        C538   1.408       .  A
C538        F539   1.358       .  S
C543        C544   1.404       .  A
C543        C548   1.393       .  A
C543        H550   1.084       .  S
C544        C545   1.407       .  A
C545        C546   1.397       .  A
C545        F552   1.357       .  S
C546        C547   1.404       .  A
C546        H551   1.084       .  S
C547        C548   1.406       .  A
C548        F549   1.358       .  S
O553        C556   1.266       .  A
O553       Cd558   2.492       .  S
C554        O563   1.266       .  A
C554        O559   1.265       .  A
C554        C697   1.481       .  S
C556        O564   1.264       .  A
C556        C829   1.475       .  S
Cd558       O564   2.496       .  S
Cd558       O562   2.523       .  S
Cd558       O560   2.389       .  S
O566        C569   1.266       .  A
O566       Cd571   2.472   1_556  S
C567        O576   1.265       .  A
C567        O572   1.265       .  A
C567        C853   1.479       .  S
C569        O577   1.265       .  A
C569        C725   1.473       .  S
Cd571       O577   2.503   1_554  S
Cd571       O575   2.526       .  S
Cd571       O573   2.385   1_554  S
O579        C582   1.264       .  A
O579       Cd584   2.480       .  S
C580        O589   1.267       .  A
C580        O585   1.266       .  A
C580        C764   1.476       .  S
O581        C587   1.269   1_556  A
O581       Cd584   2.509       .  S
C582        O590   1.263       .  A
C582        C632   1.473       .  S
Cd584       O590   2.506       .  S
Cd584       O588   2.535       .  S
Cd584       O586   2.481   1_556  S
O592        C595   1.266       .  A
C593        O602   1.264       .  A
C593        O598   1.264       .  A
C593        C686   1.475       .  S
O594       Cd597   2.509       .  S
C595        O603   1.266       .  A
C595        C814   1.476       .  S
Cd597       O604   2.396   1_556  S
Cd597       O602   2.521       .  S
Cd597       O598   2.477       .  S
O605        C608   1.266       .  A
C606        O615   1.265       .  A
C606        O611   1.268       .  A
C606        C645   1.478       .  S
O607       Cd610   2.514   1_554  S
C608        O616   1.265       .  A
C608        C775   1.471       .  S
Cd610       O617   2.398       .  S
Cd610       O615   2.500       .  S
Cd610       O611   2.489       .  S
O618        C621   1.266       .  A
O618       Cd623   2.474   1_556  S
C619        O628   1.265       .  A
C619        O624   1.265       .  A
C619        C790   1.475       .  S
O620        C626   1.268   1_544  A
O620       Cd623   2.515       .  S
C621        O629   1.265       .  A
C621        C658   1.473       .  S
Cd623       O629   2.494   1_554  S
Cd623       O627   2.521   1_554  S
Cd623       O625   2.485       .  S
O631        C634   1.266       .  A
O631       Cd636   2.472       .  S
C632        O641   1.260       .  A
C632        O637   1.267       .  A
O633        C639   1.264       .  A
O633       Cd636   2.482       .  S
C634        O642   1.267       .  A
C634       C1076   1.490       .  S
C635        O640   1.266       .  A
C635        O638   1.269       .  A
C635       C1089   1.478       .  S
Cd636       O643   2.425       .  S
Cd636       O642   2.486       .  S
Cd636       O641   2.461       .  S
Cd636       O637   2.519       .  S
Cd636       O640   2.434       .  S
Cd636       O638   2.455       .  S
C639        O643   1.262       .  A
C639       C1096   1.474       .  S
O644        C647   1.265       .  A
O644       Cd649   2.473       .  S
C645        O654   1.260       .  A
C645        O650   1.267       .  A
O646        C652   1.266       .  A
O646       Cd649   2.435       .  S
C647        O655   1.268       .  A
C647       C1059   1.489       .  S
C648        O653   1.265       .  A
C648        O651   1.261       .  A
C648       C1099   1.472       .  S
Cd649       O656   2.493       .  S
Cd649       O655   2.491       .  S
Cd649       O654   2.480       .  S
Cd649       O650   2.532       .  S
Cd649       O653   2.472       .  S
Cd649       O651   2.434       .  S
C652        O656   1.269       .  A
C652       C1066   1.483       .  S
O657        C660   1.267       .  A
O657       Cd662   2.512       .  S
C658        O667   1.260       .  A
C658        O663   1.265       .  A
O659        C665   1.265       .  A
O659       Cd662   2.481       .  S
C660        O668   1.265       .  A
C660       C1026   1.490       .  S
C661        O666   1.266       .  A
C661        O664   1.268       .  A
C661       C1036   1.477       .  S
Cd662       O669   2.427       .  S
Cd662       O668   2.463       .  S
Cd662       O667   2.473       .  S
Cd662       O663   2.513       .  S
Cd662       O666   2.412       .  S
Cd662       O664   2.470       .  S
C665        O669   1.261       .  A
C665       C1049   1.476       .  S
O670        C673   1.266       .  A
O670       Cd675   2.510       .  S
C671        O680   1.268       .  A
C671        O676   1.264       .  A
C671       C1016   1.486       .  S
O672        C678   1.264       .  A
O672       Cd675   2.465       .  S
C673        O681   1.261       .  A
C673        C736   1.474       .  S
C674        O679   1.266       .  A
C674        O677   1.267       .  A
C674       C1086   1.479       .  S
Cd675       O682   2.448       .  S
Cd675       O681   2.471       .  S
Cd675       O680   2.496       .  S
Cd675       O676   2.448       .  S
Cd675       O679   2.443       .  S
Cd675       O677   2.462       .  S
C678        O682   1.262       .  A
C678       C1046   1.476       .  S
O683        C686   1.268       .  A
O683       Cd688   2.523       .  S
C684        O693   1.265       .  A
C684        O689   1.268       .  A
C684        C986   1.489       .  S
O685        C691   1.262       .  A
O685       Cd688   2.471       .  S
C686        O694   1.261       .  A
C687        O692   1.267       .  A
C687        O690   1.268       .  A
C687        C999   1.482       .  S
Cd688       O695   2.478       .  S
Cd688       O694   2.456       .  S
Cd688       O693   2.465       .  S
Cd688       O689   2.502       .  S
Cd688       O692   2.437       .  S
Cd688       O690   2.481       .  S
C691        O695   1.263       .  A
C691       C1006   1.481       .  S
O696        C699   1.268       .  A
O696       Cd701   2.503       .  S
C697        O706   1.261       .  A
C697        O702   1.267       .  A
O698        C704   1.262       .  A
O698       Cd701   2.462       .  S
C699        O707   1.265       .  A
C699        C979   1.494       .  S
C700        O705   1.266       .  A
C700        O703   1.269       .  A
C700       C1069   1.483       .  S
Cd701       O708   2.493       .  S
Cd701       O707   2.502       .  S
Cd701       O706   2.472       .  S
Cd701       O702   2.543       .  S
Cd701       O705   2.431       .  S
Cd701       O703   2.490       .  S
C704        O708   1.264       .  A
C704       C1009   1.481       .  S
O709        C712   1.266       .  A
O709       Cd714   2.472       .  S
C710        O719   1.259       .  A
C710        O715   1.266       .  A
C710        C751   1.472       .  S
O711        C717   1.263       .  A
O711       Cd714   2.467       .  S
C712        O720   1.267       .  A
C712        C956   1.490       .  S
C713        O718   1.266       .  A
C713        O716   1.270       .  A
C713        C996   1.479       .  S
Cd714       O721   2.466       .  S
Cd714       O720   2.490       .  S
Cd714       O719   2.460       .  S
Cd714       O715   2.524       .  S
Cd714       O718   2.398       .  S
Cd714       O716   2.485       .  S
C717        O721   1.262       .  A
C717        C966   1.477       .  S
O722        C725   1.267       .  A
O722       Cd727   2.512       .  S
C723        O732   1.266       .  A
C723        O728   1.267       .  A
C723        C946   1.486       .  S
O724        C730   1.263       .  A
O724       Cd727   2.473       .  S
C725        O733   1.262       .  A
C726        O731   1.266       .  A
C726        O729   1.267       .  A
C726       C1039   1.477       .  S
Cd727       O734   2.470       .  S
Cd727       O733   2.458       .  S
Cd727       O732   2.488       .  S
Cd727       O728   2.459       .  S
Cd727       O731   2.421       .  S
Cd727       O729   2.471       .  S
C730        O734   1.263       .  A
C730        C969   1.478       .  S
O735        C738   1.266       .  A
C736        O745   1.266       .  A
C736        O741   1.266       .  A
O737       Cd740   2.501   1_554  S
C738        O746   1.264       .  A
C738        C801   1.473       .  S
Cd740       O747   2.402       .  S
Cd740       O745   2.501       .  S
Cd740       O741   2.480       .  S
O748        C751   1.266       .  A
O748       Cd753   2.465       .  S
C749        O758   1.265       .  A
C749        O754   1.264       .  A
C749        C840   1.476       .  S
O750        C756   1.268   1_554  A
O750       Cd753   2.506   1_554  S
C751        O759   1.265       .  A
Cd753       O759   2.497       .  S
Cd753       O757   2.529   1_556  S
Cd753       O755   2.471       .  S
O761        C764   1.267       .  A
O761       Cd766   2.530       .  S
C762        O771   1.266       .  A
C762        O767   1.267       .  A
C762       C1079   1.490       .  S
O763        C769   1.263       .  A
O763       Cd766   2.464       .  S
C764        O772   1.260       .  A
C765        O770   1.266       .  A
C765        O768   1.269       .  A
C765        C926   1.483       .  S
Cd766       O773   2.470       .  S
Cd766       O772   2.463       .  S
Cd766       O771   2.484       .  S
Cd766       O767   2.477       .  S
Cd766       O770   2.432       .  S
Cd766       O768   2.488       .  S
C769        O773   1.263       .  A
C769        C936   1.479       .  S
O774        C777   1.266       .  A
O774       Cd779   2.480       .  S
C775        O784   1.261       .  A
C775        O780   1.266       .  A
O776        C782   1.263       .  A
O776       Cd779   2.473       .  S
C777        O785   1.265       .  A
C777       C1056   1.487       .  S
C778        O783   1.268       .  A
C778        O781   1.268       .  A
C778        C916   1.487       .  S
Cd779       O786   2.476       .  S
Cd779       O785   2.470       .  S
Cd779       O784   2.453       .  S
Cd779       O780   2.514       .  S
Cd779       O783   2.459       .  S
Cd779       O781   2.488       .  S
C782        O786   1.264       .  A
C782        C939   1.482       .  S
O787        C790   1.266       .  A
O787       Cd792   2.519       .  S
C788        O797   1.266       .  A
C788        O793   1.267       .  A
C788       C1029   1.490       .  S
O789        C795   1.264       .  A
O789       Cd792   2.485       .  S
C790        O798   1.261       .  A
C791        O796   1.267       .  A
C791        O794   1.269       .  A
C791        C896   1.483       .  S
Cd792       O799   2.435       .  S
Cd792       O798   2.473       .  S
Cd792       O797   2.481       .  S
Cd792       O793   2.477       .  S
Cd792       O796   2.444       .  S
Cd792       O794   2.468       .  S
C795        O799   1.261       .  A
C795        C906   1.477       .  S
O800        C803   1.266       .  A
O800       Cd805   2.469       .  S
C801        O810   1.259       .  A
C801        O806   1.267       .  A
O802        C808   1.264       .  A
O802       Cd805   2.491       .  S
C803        O811   1.268       .  A
C803       C1019   1.487       .  S
C804        O809   1.267       .  A
C804        O807   1.269       .  A
C804        C929   1.481       .  S
Cd805       O812   2.424       .  S
Cd805       O811   2.479       .  S
Cd805       O810   2.451       .  S
Cd805       O806   2.537       .  S
Cd805       O809   2.431       .  S
Cd805       O807   2.470       .  S
C808        O812   1.261       .  A
C808        C909   1.475       .  S
O813        C816   1.267       .  A
O813       Cd818   2.495       .  S
C814        O823   1.259       .  A
C814        O819   1.267       .  A
O815        C821   1.264       .  A
O815       Cd818   2.473       .  S
C816        O824   1.267       .  A
C816        C989   1.489       .  S
C817        O822   1.266       .  A
C817        O820   1.269       .  A
C817        C876   1.483       .  S
Cd818       O825   2.436       .  S
Cd818       O824   2.466       .  S
Cd818       O823   2.465       .  S
Cd818       O819   2.536       .  S
Cd818       O822   2.445       .  S
Cd818       O820   2.478       .  S
C821        O825   1.262       .  A
C821        C886   1.475       .  S
O826        C829   1.266       .  A
O826       Cd831   2.517       .  S
C827        O836   1.265       .  A
C827        O832   1.267       .  A
C827        C976   1.490       .  S
O828        C834   1.265       .  A
O828       Cd831   2.485       .  S
C829        O837   1.260       .  A
C830        O835   1.267       .  A
C830        O833   1.269       .  A
C830        C919   1.486       .  S
Cd831       O838   2.433       .  S
Cd831       O837   2.484       .  S
Cd831       O836   2.475       .  S
Cd831       O832   2.497       .  S
Cd831       O835   2.454       .  S
Cd831       O833   2.475       .  S
C834        O838   1.262       .  A
C834        C889   1.474       .  S
O839        C842   1.267       .  A
O839       Cd844   2.478       .  S
C840        O849   1.261       .  A
C840        O845   1.267       .  A
O841        C847   1.266       .  A
O841       Cd844   2.435       .  S
C842        O850   1.267       .  A
C842        C959   1.490       .  S
C843        O848   1.264       .  A
C843        O846   1.262       .  A
C843        C866   1.473       .  S
Cd844       O851   2.472       .  S
Cd844       O850   2.484       .  S
Cd844       O849   2.463       .  S
Cd844       O845   2.526       .  S
Cd844       O848   2.475       .  S
Cd844       O846   2.443       .  S
C847        O851   1.267       .  A
C847        C879   1.480       .  S
O852        C855   1.265       .  A
O852       Cd857   2.466       .  S
C853        O862   1.261       .  A
C853        O858   1.267       .  A
O854        C860   1.266       .  A
O854       Cd857   2.477       .  S
C855        O863   1.265       .  A
C855        C949   1.485       .  S
C856        O861   1.267       .  A
C856        O859   1.269       .  A
C856        C899   1.484       .  S
Cd857       O864   2.433       .  S
Cd857       O863   2.475       .  S
Cd857       O862   2.482       .  S
Cd857       O858   2.524       .  S
Cd857       O861   2.452       .  S
Cd857       O859   2.472       .  S
C860        O864   1.262       .  A
C860        C869   1.473       .  S
C865        C866   1.404       .  A
C865        C870   1.393       .  A
C865        H872   1.084       .  S
C866        C867   1.406       .  A
C867        C868   1.398       .  A
C867        F874   1.357       .  S
C868        C869   1.405       .  A
C868        H873   1.084       .  S
C869        C870   1.406       .  A
C870        F871   1.358       .  S
C875        C876   1.407       .  A
C875        C880   1.401       .  A
C875        H882   1.083       .  S
C876        C877   1.409       .  A
C877        C878   1.395       .  A
C877        F884   1.357       .  S
C878        C879   1.404       .  A
C878        H883   1.083       .  S
C879        C880   1.408       .  A
C880        F881   1.357       .  S
C885        C886   1.404       .  A
C885        C890   1.394       .  A
C885        H892   1.083       .  S
C886        C887   1.408       .  A
C887        C888   1.398       .  A
C887        F894   1.357       .  S
C888        C889   1.404       .  A
C888        H893   1.084       .  S
C889        C890   1.406       .  A
C890        F891   1.358       .  S
C895        C896   1.406       .  A
C895        C900   1.398       .  A
C895        H902   1.083       .  S
C896        C897   1.408       .  A
C897        C898   1.400       .  A
C897        F904   1.357       .  S
C898        C899   1.406       .  A
C898        H903   1.083       .  S
C899        C900   1.409       .  A
C900        F901   1.358       .  S
C905        C906   1.406       .  A
C905        C910   1.399       .  A
C905        H912   1.083       .  S
C906        C907   1.407       .  A
C907        C908   1.392       .  A
C907        F914   1.358       .  S
C908        C909   1.403       .  A
C908        H913   1.084       .  S
C909        C910   1.407       .  A
C910        F911   1.357       .  S
C915        C916   1.405       .  A
C915        C920   1.398       .  A
C915        H922   1.083       .  S
C916        C917   1.410       .  A
C917        C918   1.402       .  A
C917        F924   1.357       .  S
C918        C919   1.406       .  A
C918        H923   1.083       .  S
C919        C920   1.409       .  A
C920        F921   1.357       .  S
C925        C926   1.407       .  A
C925        C930   1.402       .  A
C925        H932   1.083       .  S
C926        C927   1.408       .  A
C927        C928   1.395       .  A
C927        F934   1.357       .  S
C928        C929   1.404       .  A
C928        H933   1.083       .  S
C929        C930   1.409       .  A
C930        F931   1.357       .  S
C935        C936   1.404       .  A
C935        C940   1.397       .  A
C935        H942   1.084       .  S
C936        C937   1.408       .  A
C937        C938   1.399       .  A
C937        F944   1.358       .  S
C938        C939   1.406       .  A
C938        H943   1.083       .  S
C939        C940   1.409       .  A
C940        F941   1.357       .  S
C945        C946   1.405       .  A
C945        C950   1.398       .  A
C945        H952   1.083       .  S
C946        C947   1.410       .  A
C947        C948   1.402       .  A
C947        F954   1.357       .  S
C948        C949   1.407       .  A
C948        H953   1.083       .  S
C949        C950   1.409       .  A
C950        F951   1.357       .  S
C955        C956   1.407       .  A
C955        C960   1.403       .  A
C955        H962   1.083       .  S
C956        C957   1.410       .  A
C957        C958   1.401       .  A
C957        F964   1.357       .  S
C958        C959   1.406       .  A
C958        H963   1.083       .  S
C959        C960   1.411       .  A
C960        F961   1.357       .  S
C965        C966   1.404       .  A
C965        C970   1.396       .  A
C965        H972   1.084       .  S
C966        C967   1.407       .  A
C967        C968   1.397       .  A
C967        F974   1.358       .  S
C968        C969   1.405       .  A
C968        H973   1.084       .  S
C969        C970   1.407       .  A
C970        F971   1.357       .  S
C975        C976   1.407       .  A
C975        C980   1.404       .  A
C975        H982   1.083       .  S
C976        C977   1.409       .  A
C977        C978   1.402       .  A
C977        F984   1.357       .  S
C978        C979   1.406       .  A
C978        H983   1.083       .  S
C979        C980   1.412       .  A
C980        F981   1.357       .  S
C985        C986   1.407       .  A
C985        C990   1.404       .  A
C985        H992   1.083       .  S
C986        C987   1.410       .  A
C987        C988   1.399       .  A
C987        F994   1.357       .  S
C988        C989   1.406       .  A
C988        H993   1.083       .  S
C989        C990   1.411       .  A
C990        F991   1.357       .  S
C995        C996   1.404       .  A
C995       C1000   1.391       .  A
C995       H1002   1.083       .  S
C996        C997   1.408       .  A
C997        C998   1.403       .  A
C997       F1004   1.358       .  S
C998        C999   1.408       .  A
C998       H1003   1.083       .  S
C999       C1000   1.407       .  A
C1000      F1001   1.357       .  S
C1005      C1006   1.406       .  A
C1005      C1010   1.399       .  A
C1005      H1012   1.083       .  S
C1006      C1007   1.408       .  A
C1007      C1008   1.397       .  A
C1007      F1014   1.358       .  S
C1008      C1009   1.405       .  A
C1008      H1013   1.084       .  S
C1009      C1010   1.407       .  A
C1010      F1011   1.357       .  S
C1015      C1016   1.406       .  A
C1015      C1020   1.402       .  A
C1015      H1022   1.083       .  S
C1016      C1017   1.409       .  A
C1017      C1018   1.400       .  A
C1017      F1024   1.358       .  S
C1018      C1019   1.406       .  A
C1018      H1023   1.083       .  S
C1019      C1020   1.410       .  A
C1020      F1021   1.357       .  S
C1025      C1026   1.406       .  A
C1025      C1030   1.400       .  A
C1025      H1032   1.083       .  S
C1026      C1027   1.410       .  A
C1027      C1028   1.404       .  A
C1027      F1034   1.357       .  S
C1028      C1029   1.408       .  A
C1028      H1033   1.083       .  S
C1029      C1030   1.409       .  A
C1030      F1031   1.357       .  S
C1035      C1036   1.406       .  A
C1035      C1040   1.401       .  A
C1035      H1042   1.083       .  S
C1036      C1037   1.407       .  A
C1037      C1038   1.391       .  A
C1037      F1044   1.357       .  S
C1038      C1039   1.403       .  A
C1038      H1043   1.083       .  S
C1039      C1040   1.409       .  A
C1040      F1041   1.358       .  S
C1045      C1046   1.404       .  A
C1045      C1050   1.394       .  A
C1045      H1052   1.084       .  S
C1046      C1047   1.407       .  A
C1047      C1048   1.398       .  A
C1047      F1054   1.357       .  S
C1048      C1049   1.404       .  A
C1048      H1053   1.084       .  S
C1049      C1050   1.408       .  A
C1050      F1051   1.358       .  S
C1055      C1056   1.406       .  A
C1055      C1060   1.401       .  A
C1055      H1062   1.083       .  S
C1056      C1057   1.410       .  A
C1057      C1058   1.401       .  A
C1057      F1064   1.357       .  S
C1058      C1059   1.406       .  A
C1058      H1063   1.083       .  S
C1059      C1060   1.411       .  A
C1060      F1061   1.357       .  S
C1065      C1066   1.407       .  A
C1065      C1070   1.404       .  A
C1065      H1072   1.083       .  S
C1066      C1067   1.407       .  A
C1067      C1068   1.394       .  A
C1067      F1074   1.358       .  S
C1068      C1069   1.404       .  A
C1068      H1073   1.083       .  S
C1069      C1070   1.409       .  A
C1070      F1071   1.357       .  S
C1075      C1076   1.407       .  A
C1075      C1080   1.403       .  A
C1075      H1082   1.083       .  S
C1076      C1077   1.410       .  A
C1077      C1078   1.401       .  A
C1077      F1084   1.357       .  S
C1078      C1079   1.406       .  A
C1078      H1083   1.083       .  S
C1079      C1080   1.410       .  A
C1080      F1081   1.357       .  S
C1085      C1086   1.405       .  A
C1085      C1090   1.396       .  A
C1085      H1092   1.083       .  S
C1086      C1087   1.408       .  A
C1087      C1088   1.397       .  A
C1087      F1094   1.357       .  S
C1088      C1089   1.405       .  A
C1088      H1093   1.083       .  S
C1089      C1090   1.408       .  A
C1090      F1091   1.358       .  S
C1095      C1096   1.404       .  A
C1095      C1100   1.393       .  A
C1095      H1102   1.084       .  S
C1096      C1097   1.407       .  A
C1097      C1098   1.397       .  A
C1097      F1104   1.357       .  S
C1098      C1099   1.404       .  A
C1098      H1103   1.084       .  S
C1099      C1100   1.406       .  A
C1100      F1101   1.358       .  S
