geometry optimzed in LAMMPS
_audit_creation_date              2020-11-30 
_audit_creation_method            'lammps2cif' 
_symmetry_space_group_name_H-M    'P1' 
_symmetry_Int_Tables_number       1 
_symmetry_cell_setting            triclinic 
loop_ 
_symmetry_equiv_pos_as_xyz 
  x,y,z 
_cell_length_a                    27.37109761 
_cell_length_b                    27.374927131890832 
_cell_length_c                    27.417735177279805 
_cell_angle_alpha                 87.12881958542042 
_cell_angle_beta                  87.12874938729205 
_cell_angle_gamma                 92.88783123883462 
loop_ 
_atom_site_label 
_atom_site_type_symbol 
_atom_site_fract_x 
_atom_site_fract_y 
_atom_site_fract_z 
_atom_site_charge 
O1          O  0.56018596  0.05912808  0.87980571    -0.78900
O2          O  0.53301057  0.07568154  0.60153862    -0.80500
O3          O  0.64711274  0.05346754  0.73889964    -0.77500
O4          O  0.53743547  0.16270554  0.74456263    -0.75900
O5          O  0.45353389  0.15873494  0.74985923    -0.77700
O6          O  0.64317540  0.96947673  0.74731875    -0.78600
O7          O  0.57297974  0.12198046  0.65590708    -0.79900
O8          O  0.60243735  0.09830940  0.81324778    -0.80200
Eu9        Eu  0.56314889  0.07902725  0.73822249     2.39200
O10         O  0.49259229  0.07391079  0.69581096    -0.87700
O11         O  0.55612748  0.01006648  0.79119763    -0.91300
C12         C  0.59618911  0.08594831  0.85911278     1.03400
C13         C  0.55685917  0.11523926  0.61304540     1.03200
C14         C  0.66592961  0.01167448  0.74565643     1.03100
C15         C  0.49561298  0.18208317  0.74779696     1.01000
H16         H  0.59316281  0.00729196  0.66988855     0.30700
O17         O  0.56467505  0.00731299  0.69224952    -1.00100
H18         H  0.49702236  0.10564725  0.81576698     0.30800
O19         O  0.49595707  0.07692369  0.79670053    -1.02700
O20         O  0.43841354  0.93797056  0.62167387    -0.79900
O21         O  0.42233128  0.96500135  0.90002359    -0.79400
O22         O  0.57283302  0.89750710  0.67365581    -0.77900
O23         O  0.40545937  0.10632330  0.67172192    -0.81200
O24         O  0.39186807  0.09255435  0.83015222    -0.79100
O25         O  0.60054978  0.92512831  0.82775894    -0.77700
O26         O  0.44399073  0.85087462  0.76221559    -0.79200
O27         O  0.33510026  0.96076222  0.75718898    -0.81100
O28         O  0.52799372  0.85469708  0.75378864    -0.77900
O29         O  0.33929682  0.04465976  0.75212699    -0.80600
O30         O  0.53590790  0.93885155  0.61202062    -0.76300
O31         O  0.55918148  0.96187766  0.88948592    -0.76300
O32         O  0.43784653  0.06068388  0.89054997    -0.76000
O33         O  0.43704527  0.06033088  0.61118579    -0.79500
O34         O  0.39915375  0.89575657  0.68821283    -0.78900
O35         O  0.37578989  0.92531993  0.84564873    -0.77200
Eu36       Eu  0.49111906  0.00450398  0.65022557     2.39800
Eu37       Eu  0.49353826  0.00659670  0.85127840     2.39600
Eu38       Eu  0.55882692  0.93893583  0.75073380     2.38400
Eu39       Eu  0.42533929  0.07271717  0.75088953     2.39900
Eu40       Eu  0.41869887  0.93488430  0.76328063     2.39800
O41         O  0.42408582  0.00534868  0.80578423    -0.91600
O42         O  0.48765017  0.94195121  0.71031992    -0.90500
C43         C  0.41152273  0.90200317  0.64234507     1.03500
C44         C  0.38263830  0.94142004  0.88850096     1.02300
C45         C  0.55928520  0.90251378  0.62932044     1.01600
C46         C  0.41379799  0.09650755  0.62693166     1.03700
C47         C  0.40173333  0.08411972  0.87491795     1.02600
C48         C  0.59560657  0.93868685  0.87210778     1.01400
C49         C  0.48575325  0.83203002  0.75532194     1.01500
C50         C  0.31585126  0.00264362  0.75414733     1.04100
H51         H  0.49043610  0.90451912  0.83154070     0.31500
O52         O  0.49045583  0.93304674  0.80922888    -1.03800
H53         H  0.39209083  0.00123878  0.68592537     0.33500
O54         O  0.42086154  0.00219169  0.70493234    -1.06400
C55         C  0.67073111  0.26837660  0.48511626     0.87700
C56         C  0.64041702  0.24824240  0.53058994    -0.52500
C57         C  0.59223608  0.23889945  0.52359409     0.10600
C58         C  0.57819869  0.25777377  0.47155542     0.21600
C59         C  0.65917291  0.23357569  0.44522150    -0.53300
C60         C  0.61065591  0.22752174  0.43830059     0.10700
C61         C  0.64931188  0.31651666  0.46939769    -0.52800
C62         C  0.60039300  0.31247203  0.46165194     0.11300
H63         H  0.65763289  0.23373534  0.56282454     0.15800
H64         H  0.53840884  0.25314644  0.46568365     0.01600
H65         H  0.68655502  0.21244832  0.42688958     0.16100
H66         H  0.66987916  0.35153953  0.46945451     0.15900
O67         O  0.54331836  0.07628908  0.38026536    -0.78900
O68         O  0.55758605  0.05324466  0.10161188    -0.80500
O69         O  0.64481393  0.05549491  0.24429653    -0.77500
O70         O  0.53423439  0.16568154  0.23944508    -0.75900
O71         O  0.45016814  0.16160963  0.24582848    -0.77700
O72         O  0.64143003  0.97160151  0.24901770    -0.78600
O73         O  0.60268166  0.09571750  0.15535180    -0.79900
O74         O  0.58331271  0.11878745  0.31414382    -0.80200
Eu75       Eu  0.56111544  0.08157066  0.23854066     2.39200
O76         O  0.48952310  0.08294929  0.19257761    -0.87700
O77         O  0.55925107  0.01355076  0.29610524    -0.91300
C78         C  0.57078893  0.11214910  0.36001855     1.03400
C79         C  0.59634328  0.07897854  0.11256669     1.03200
C80         C  0.66452520  0.01382032  0.24700356     1.03100
C81         C  0.49221190  0.18454970  0.24495169     1.01000
H82         H  0.58618178  0.00876416  0.17698159     0.30700
O83         O  0.55643291  0.01034401  0.19686461    -1.00100
H84         H  0.49313273  0.10533434  0.30930605     0.30800
O85         O  0.49221858  0.07552071  0.29223943    -1.02700
O86         O  0.42164747  0.95483398  0.12134959    -0.79900
O87         O  0.44507894  0.94021981  0.40006183    -0.79400
O88         O  0.58640225  0.91930206  0.17129493    -0.77900
O89         O  0.38081961  0.09324586  0.17321611    -0.81200
O90         O  0.40516314  0.11704550  0.32910104    -0.79100
O91         O  0.57885123  0.91149061  0.33018032    -0.77700
O92         O  0.44274043  0.85317201  0.25747304    -0.79200
O93         O  0.33244607  0.96380205  0.26205950    -0.81100
O94         O  0.52665269  0.85671482  0.25276730    -0.77900
O95         O  0.33649993  0.04787759  0.25613787    -0.80600
O96         O  0.54183052  0.95423571  0.11125121    -0.76300
O97         O  0.54390798  0.95590005  0.39034022    -0.76300
O98         O  0.44283302  0.07565253  0.39027585    -0.76000
O99         O  0.42198870  0.05555111  0.11190556    -0.79500
O100        O  0.37929830  0.91462901  0.18743705    -0.78900
O101        O  0.40250030  0.89518714  0.34634360    -0.77200
Eu102      Eu  0.48696464  0.00921272  0.15057063     2.39800
Eu103      Eu  0.48896456  0.01090124  0.35115389     2.39600
Eu104      Eu  0.55547086  0.94265958  0.25078401     2.38400
Eu105      Eu  0.42118786  0.07686859  0.25104702     2.39900
Eu106      Eu  0.41649916  0.93684062  0.26313596     2.39800
O107        O  0.41512434  0.00834431  0.30928772    -0.91600
O108        O  0.48449511  0.93886147  0.20553571    -0.90500
C109        C  0.38587747  0.92721163  0.14155884     1.03500
C110        C  0.41935769  0.90146957  0.38909889     1.02300
C111        C  0.57686888  0.92897170  0.12655004     1.01600
C112        C  0.38600538  0.07985031  0.12875202     1.03700
C113        C  0.41865610  0.11174998  0.37352717     1.02600
C114        C  0.56919860  0.92091940  0.37495450     1.01400
C115        C  0.48447424  0.83355004  0.25482519     1.01500
C116        C  0.31360877  0.00584075  0.25666293     1.04100
H117        H  0.48939929  0.91182589  0.32453846     0.31500
O118        O  0.48778519  0.94158991  0.30470025    -1.03800
H119        H  0.39272015  0.00498480  0.19257343     0.33500
O120        O  0.42252731  0.00589917  0.20966216    -1.06400
C121        C  0.22900126  0.82846253  0.01560095     0.87700
C122        C  0.24894747  0.85909944  0.97027687    -0.52500
C123        C  0.25871911  0.90710610  0.97772206     0.10600
C124        C  0.24028524  0.92073352  0.03002520     0.21600
C125        C  0.26418752  0.83938764  0.05535647    -0.53300
C126        C  0.27057861  0.88776631  0.06275859     0.10700
C127        C  0.18111018  0.84999670  0.03190851    -0.52800
C128        C  0.18548591  0.89881954  0.04001829     0.11300
H129        H  0.26311822  0.84211604  0.93776165     0.15800
H130        H  0.24520263  0.96041792  0.03626752     0.01600
H131        H  0.28522301  0.81168651  0.07331051     0.16100
H132        H  0.14595773  0.82966398  0.03179698     0.15900
C133        C  0.73469352  0.83152345  0.00060925     0.87700
C134        C  0.69614248  0.84310900  0.03927132    -0.52500
C135        C  0.69002983  0.89182247  0.04160908     0.10600
C136        C  0.72367152  0.92499836  0.00572123     0.21600
C137        C  0.71909212  0.85597273  0.95295244    -0.53300
C138        C  0.71059668  0.90443365  0.95584547     0.10700
C139        C  0.78055959  0.85961936  0.01369305    -0.52800
C140        C  0.77656525  0.90927229  0.01599590     0.11300
H141        H  0.67325866  0.81525174  0.06049462     0.15800
H142        H  0.71863310  0.96486816  0.00780905     0.01600
H143        H  0.70739997  0.83477470  0.92269752     0.16100
H144        H  0.81465071  0.84155089  0.01836135     0.15900
C145        C  0.66771228  0.76391338  0.50109347     0.87700
C146        C  0.65592142  0.80224468  0.46227854    -0.52500
C147        C  0.60714811  0.80810200  0.45993701     0.10600
C148        C  0.57413914  0.77446221  0.49594162     0.21600
C149        C  0.64318343  0.77961865  0.54867741    -0.53300
C150        C  0.59464663  0.78781926  0.54574533     0.10700
C151        C  0.63979166  0.71786484  0.48823014    -0.52800
C152        C  0.59011846  0.72165289  0.48586439     0.11300
H153        H  0.68366982  0.82517662  0.44096151     0.15800
H154        H  0.53422596  0.77928451  0.49385028     0.01600
H155        H  0.66432279  0.79154255  0.57888387     0.16100
H156        H  0.65800781  0.68384599  0.48365158     0.15900
C157        C  0.24767175  0.18860023  0.99978719     0.87700
C158        C  0.26340144  0.16423307  0.04741487    -0.52500
C159        C  0.27096370  0.11553876  0.04493410     0.10600
C160        C  0.25654442  0.09470340  0.99544620     0.21600
C161        C  0.28549868  0.17575726  0.96077244    -0.53300
C162        C  0.29036334  0.12671337  0.95892627     0.10700
C163        C  0.20105541  0.16127778  0.98755632    -0.52800
C164        C  0.20398884  0.11153178  0.98523886     0.11300
H165        H  0.27600665  0.18555986  0.07721919     0.15800
H166        H  0.26060521  0.05463934  0.99374760     0.01600
H167        H  0.30875115  0.20289860  0.93901949     0.16100
H168        H  0.16745516  0.18013365  0.98263730     0.15900
C169        C  0.75038432  0.19088365  0.98421648     0.87700
C170        C  0.71498533  0.17873593  0.94488969    -0.52500
C171        C  0.70927459  0.13007412  0.93836888     0.10600
C172        C  0.73990537  0.09817467  0.97150874     0.21600
C173        C  0.73103935  0.16084469  0.03014182    -0.53300
C174        C  0.72130912  0.11266143  0.02359276     0.10700
C175        C  0.79846638  0.16948175  0.96795853    -0.52800
C176        C  0.79441910  0.12047383  0.96042215     0.11300
H177        H  0.69369080  0.20581585  0.92634512     0.15800
H178        H  0.73532453  0.05829770  0.96608570     0.01600
H179        H  0.71685775  0.17834958  0.06234533     0.16100
H180        H  0.83347106  0.19017459  0.96732117     0.15900
C181        C  0.31082492  0.25110598  0.50163988     0.87700
C182        C  0.33525459  0.23504755  0.45419231    -0.52500
C183        C  0.38388205  0.22726783  0.45691005     0.10600
C184        C  0.40461044  0.24184956  0.50639398     0.21600
C185        C  0.32333594  0.21342926  0.54090447    -0.53300
C186        C  0.37232204  0.20835965  0.54297622     0.10700
C187        C  0.33824943  0.29766180  0.51372382    -0.52800
C188        C  0.38795197  0.29453725  0.51622044     0.11300
H189        H  0.31396945  0.22238181  0.42438131     0.15800
H190        H  0.44464009  0.23763677  0.50827981     0.01600
H191        H  0.29601398  0.19036128  0.56262679     0.16100
H192        H  0.31949465  0.33135515  0.51842462     0.15900
C193        C  0.30812337  0.74684284  0.51684818     0.87700
C194        C  0.31969164  0.78249252  0.55612206    -0.52500
C195        C  0.36824900  0.78859004  0.56302019     0.10600
C196        C  0.40064824  0.75804944  0.53025366     0.21600
C197        C  0.33840990  0.76615750  0.47106906    -0.53300
C198        C  0.38645065  0.77631494  0.47796948     0.10700
C199        C  0.32973177  0.69899988  0.53351594    -0.52800
C200        C  0.37867748  0.70341162  0.54136399     0.11300
H201        H  0.29229834  0.80365936  0.57436243     0.15800
H202        H  0.44044711  0.76294985  0.53598089     0.01600
H203        H  0.32106364  0.78005138  0.43864960     0.16100
H204        H  0.30929232  0.66386314  0.53407477     0.15900
O205        O  0.83478643  0.75184687  0.54641752    -0.78900
O206        O  0.03710816  0.76683491  0.34474338    -0.80500
O207        O  0.90119061  0.83871241  0.40259780    -0.77500
O208        O  0.89311181  0.67959402  0.41034746    -0.75900
O209        O  0.93773365  0.61944463  0.44508298    -0.77700
O210        O  0.93553309  0.89903145  0.44729408    -0.78600
O211        O  0.95320784  0.76145352  0.34814440    -0.79900
O212        O  0.83839986  0.75717824  0.46264252    -0.80200
Eu213      Eu  0.92422998  0.75911782  0.43388307     2.39200
O214        O  0.99527908  0.71401820  0.43000042    -0.87700
O215        O  0.92004394  0.80422969  0.50486453    -0.91300
C216        C  0.81525840  0.75480084  0.50474790     1.03400
C217        C  0.99541709  0.76401331  0.32507668     1.03200
C218        C  0.91070951  0.88357514  0.41204230     1.03100
C219        C  0.90265748  0.63476188  0.41990330     1.01000
H220        H  0.99013509  0.83307796  0.40361105     0.30700
O221        O  0.99170563  0.81320722  0.43333253    -1.00100
H222        H  0.89338746  0.68510035  0.49965211     0.30800
O223        O  0.92310626  0.70503861  0.50136693    -1.02700
O224        O  0.14705986  0.77053676  0.45560741    -0.79900
O225        O  0.94504652  0.74698113  0.65676919    -0.79400
O226        O  0.03361556  0.90887603  0.43189692    -0.77900
O227        O  0.05803840  0.62996586  0.44571584    -0.81200
O228        O  0.92188022  0.60952704  0.54374574    -0.79100
O229        O  0.93514885  0.88830353  0.56776105    -0.77700
O230        O  0.07400346  0.83732167  0.60834466    -0.79200
O231        O  0.09833079  0.68143056  0.58409704    -0.81100
O232        O  0.03633143  0.89868596  0.56716144    -0.77900
O233        O  0.05729553  0.61998887  0.54634363    -0.80600
O234        O  0.07675521  0.85543673  0.38701754    -0.76300
O235        O  0.89521617  0.82185761  0.60987173    -0.76300
O236        O  0.87674417  0.66311235  0.58640040    -0.76000
O237        O  0.10014448  0.69636694  0.40567073    -0.79500
O238        O  0.14271771  0.76441530  0.53954441    -0.78900
O239        O  0.02909468  0.75356149  0.65275415    -0.77200
Eu240      Eu  0.06309012  0.77196121  0.42841728     2.39800
Eu241      Eu  0.91826663  0.74644397  0.57269480     2.39600
Eu242      Eu  0.99008006  0.85964069  0.50255949     2.38400
Eu243      Eu  0.99253798  0.65878725  0.50009273     2.39900
Eu244      Eu  0.05795255  0.75931831  0.56812062     2.39800
O245        O  0.98985173  0.70051946  0.57394354    -0.91600
O246        O  0.06409127  0.81794986  0.49997542    -0.90500
C247        C  0.16573485  0.76494969  0.49764970     1.03500
C248        C  0.98705273  0.75246651  0.67566756     1.02300
C249        C  0.05952126  0.89810335  0.39324768     1.01600
C250        C  0.09367063  0.65038706  0.41806578     1.03700
C251        C  0.88312599  0.62035927  0.56950462     1.02600
C252        C  0.90746224  0.86787112  0.60334688     1.01400
C253        C  0.06051269  0.88180727  0.60314881     1.01500
C254        C  0.09325724  0.63696757  0.57054766     1.04100
H255        H  0.98582866  0.81757091  0.59690866     0.31500
O256        O  0.98688130  0.80057473  0.56708085    -1.03800
H257        H  0.08668583  0.70102139  0.49612959     0.33500
O258        O  0.05685911  0.71811032  0.49710538    -1.06400
O259        O  0.83228652  0.24563389  0.54415693    -0.78900
O260        O  0.03545872  0.27076774  0.34299610    -0.80500
O261        O  0.87928891  0.33564544  0.41724182    -0.77500
O262        O  0.90847307  0.18166732  0.38871249    -0.75900
O263        O  0.94533952  0.12001476  0.42999263    -0.77700
O264        O  0.92026016  0.39800548  0.45349599    -0.78600
O265        O  0.95151055  0.26281433  0.34651888    -0.79900
O266        O  0.83689403  0.25385126  0.46031415    -0.80200
Eu267      Eu  0.92184507  0.25847395  0.43067818     2.39200
O268        O  0.99220492  0.22320981  0.44119040    -0.87700
O269        O  0.92277688  0.29959300  0.50164125    -0.91300
C270        C  0.81372034  0.25207871  0.50225270     1.03400
C271        C  0.99371398  0.26422815  0.32397546     1.03200
C272        C  0.88390932  0.38023843  0.43046355     1.03100
C273        C  0.92210169  0.13732682  0.39364293     1.01000
H274        H  0.98934471  0.34042480  0.39648600     0.30700
O275        O  0.98933252  0.31805867  0.42495702    -1.00100
H276        H  0.88697211  0.17714818  0.49845108     0.30800
O277        O  0.91525827  0.19978625  0.49871992    -1.02700
O278        O  0.14445934  0.26577522  0.45422806    -0.79900
O279        O  0.94104449  0.25260100  0.65435953    -0.79400
O280        O  0.05737141  0.40891294  0.45753965    -0.77900
O281        O  0.04215724  0.13059573  0.42894098    -0.81200
O282        O  0.94735586  0.10943628  0.56661071    -0.79100
O283        O  0.91866750  0.38784793  0.55121284    -0.77700
O284        O  0.08690463  0.33928986  0.58503985    -0.79200
O285        O  0.07401506  0.18044945  0.59880257    -0.81100
O286        O  0.04084754  0.39960057  0.55301955    -0.77900
O287        O  0.04369193  0.11999514  0.55193061    -0.80600
O288        O  0.10380644  0.35463007  0.41760339    -0.76300
O289        O  0.87646093  0.32084637  0.58979412    -0.76300
O290        O  0.90670693  0.16331268  0.61292513    -0.76000
O291        O  0.08107498  0.19749366  0.38705609    -0.79500
O292        O  0.14000265  0.26090016  0.53800709    -0.78900
O293        O  0.02491705  0.25884226  0.65093932    -0.77200
Eu294      Eu  0.06073116  0.27166890  0.42715005     2.39800
Eu295      Eu  0.91615090  0.24594956  0.57037952     2.39600
Eu296      Eu  0.98568805  0.35988829  0.49864912     2.38400
Eu297      Eu  0.98950320  0.15892758  0.49547466     2.39900
Eu298      Eu  0.05382298  0.25962690  0.56513145     2.39800
O299        O  0.98704172  0.20368930  0.56558993    -0.91600
O300        O  0.05544325  0.31457525  0.49754862    -0.90500
C301        C  0.16360690  0.26275972  0.49617278     1.03500
C302        C  0.98270247  0.25644361  0.67403151     1.02300
C303        C  0.09703378  0.39758485  0.43374310     1.01600
C304        C  0.06876130  0.15155210  0.39298483     1.03700
C305        C  0.92310986  0.12053568  0.60609370     1.02600
C306        C  0.88266125  0.36687852  0.57784998     1.01400
C307        C  0.07693807  0.38410832  0.57658675     1.01500
C308        C  0.06642399  0.13562928  0.58850212     1.04100
H309        H  0.98153221  0.32402607  0.59741747     0.31500
O310        O  0.98293813  0.30498221  0.56871547    -1.03800
H311        H  0.08836220  0.19464958  0.49369385     0.33500
O312        O  0.05954819  0.21359647  0.49450576    -1.06400
C313        C  0.72939308  0.49373020  0.68272472     0.87700
C314        C  0.76453230  0.45395346  0.67106348    -0.52500
C315        C  0.76995394  0.44661968  0.62260108     0.10600
C316        C  0.73932913  0.47948316  0.59039720     0.21600
C317        C  0.74881637  0.53920084  0.65196377    -0.53300
C318        C  0.75821630  0.53183232  0.60397030     0.10700
C319        C  0.68110320  0.47731965  0.66173030    -0.52800
C320        C  0.68486766  0.46901031  0.61292233     0.11300
H321        H  0.78589214  0.43572114  0.69826962     0.15800
H322        H  0.74369930  0.47342377  0.55069271     0.01600
H323        H  0.76325369  0.57171347  0.66884535     0.16100
H324        H  0.64618294  0.47726609  0.68245298     0.15900
C325        C  0.23156171  0.51070209  0.67967859     0.87700
C326        C  0.21684116  0.55819162  0.65413176    -0.52500
C327        C  0.20920451  0.55462458  0.60563012     0.10600
C328        C  0.22284593  0.50434287  0.58609207     0.21600
C329        C  0.19307959  0.47191041  0.66757974    -0.53300
C330        C  0.18831668  0.46893907  0.61870339     0.10700
C331        C  0.27798086  0.49702806  0.65291626    -0.52800
C332        C  0.27520268  0.49383660  0.60328663     0.11300
H333        H  0.20456859  0.58870731  0.67465045     0.15800
H334        H  0.21886353  0.50184201  0.54615282     0.01600
H335        H  0.16943949  0.45105504  0.69504670     0.16100
H336        H  0.31144608  0.49216998  0.67198900     0.15900
C337        C  0.81250175  0.00993935  0.25533034     0.87700
C338        C  0.82443703  0.97067747  0.29317987    -0.52500
C339        C  0.87325665  0.96805546  0.29869237     0.10600
C340        C  0.90620052  0.00418844  0.26515242     0.21600
C341        C  0.83745264  0.05731756  0.27125145    -0.53300
C342        C  0.88606252  0.05408146  0.27903151     0.10700
C343        C  0.84008909  0.99733015  0.20903182    -0.52800
C344        C  0.88979766  0.99454094  0.21246574     0.11300
H345        H  0.79675318  0.94938843  0.31620920     0.15800
H346        H  0.94613884  0.00184875  0.26967476     0.01600
H347        H  0.81658158  0.08759232  0.28354091     0.16100
H348        H  0.82157718  0.99299971  0.17519425     0.15900
C349        C  0.80880699  0.99408136  0.76031861     0.87700
C350        C  0.83962580  0.03925360  0.73999687    -0.52500
C351        C  0.88755743  0.03146588  0.73004665     0.10600
C352        C  0.90092380  0.97905264  0.74866435     0.21600
C353        C  0.81924950  0.95405359  0.72528110    -0.53300
C354        C  0.86756888  0.94635322  0.71867111     0.10700
C355        C  0.83050814  0.97777621  0.80802113    -0.52800
C356        C  0.87922217  0.96932967  0.80350405     0.11300
H357        H  0.82276472  0.07185091  0.72576908     0.15800
H358        H  0.94053782  0.97252949  0.74359638     0.01600
H359        H  0.79130733  0.93621844  0.70444480     0.16100
H360        H  0.81034068  0.97807781  0.84318557     0.15900
C361        C  0.74412467  0.50780293  0.32346561     0.87700
C362        C  0.78331048  0.54616073  0.33449186    -0.52500
C363        C  0.78971092  0.54896297  0.38304844     0.10600
C364        C  0.75579506  0.51371891  0.41667073     0.21600
C365        C  0.75915516  0.46005790  0.34834073    -0.53300
C366        C  0.76812750  0.46336915  0.39659244     0.10700
C367        C  0.69865079  0.52187288  0.35165065    -0.52800
C368        C  0.70292882  0.52453996  0.40121202     0.11300
H369        H  0.80620957  0.56700100  0.30639896     0.15800
H370        H  0.76112625  0.51611972  0.45640009     0.01600
H371        H  0.77038908  0.42941479  0.32743091     0.16100
H372        H  0.66452938  0.52678170  0.33373306     0.15900
C373        C  0.25114943  0.52486425  0.31953952     0.87700
C374        C  0.23065712  0.47972093  0.35027743    -0.52500
C375        C  0.22080336  0.48739240  0.39816749     0.10600
C376        C  0.23955428  0.53975089  0.41160801     0.21600
C377        C  0.21622414  0.56500302  0.33011536    -0.53300
C378        C  0.20962638  0.57259131  0.37838620     0.10700
C379        C  0.29903712  0.54097508  0.34130931    -0.52800
C380        C  0.29449472  0.54938936  0.39000673     0.11300
H381        H  0.21634659  0.44715549  0.33342048     0.15800
H382        H  0.23448705  0.54621855  0.45117165     0.01600
H383        H  0.19531170  0.58289174  0.30229624     0.16100
H384        H  0.33426888  0.54060851  0.32121122     0.15900
C385        C  0.17115538  0.02499766  0.23849170     0.87700
C386        C  0.15963628  0.06492570  0.27342607    -0.52500
C387        C  0.11110208  0.07207689  0.27928629     0.10600
C388        C  0.07865788  0.03884895  0.24912364     0.21600
C389        C  0.14068712  0.97948465  0.25834291    -0.53300
C390        C  0.09264331  0.98663500  0.26812428     0.10700
C391        C  0.14971416  0.04101655  0.19041970    -0.52800
C392        C  0.10080022  0.04910422  0.19448842     0.11300
H393        H  0.18704323  0.08335562  0.29443546     0.15800
H394        H  0.03887810  0.04473987  0.25377729     0.02400
H395        H  0.15787719  0.94712434  0.27270855     0.16100
H396        H  0.17026380  0.04106065  0.15544223     0.15900
C397        C  0.16870964  0.00831060  0.74284972     0.87700
C398        C  0.14362556  0.96098586  0.72712305    -0.52500
C399        C  0.09513588  0.96442903  0.71903710     0.10600
C400        C  0.07513166  0.01441889  0.73315900     0.21600
C401        C  0.15693325  0.04759507  0.70486204    -0.53300
C402        C  0.10805500  0.05042238  0.69959992     0.10700
C403        C  0.14135443  0.02118297  0.78909708    -0.52800
C404        C  0.09171340  0.02431536  0.78578771     0.11300
H405        H  0.16448404  0.93072815  0.71474660     0.15800
H406        H  0.03518588  0.01685127  0.72874911     0.01600
H407        H  0.18463022  0.06892230  0.68189605     0.16100
H408        H  0.16008941  0.02580207  0.82276807     0.15900
O409        O  0.74663032  0.66468785  0.95493954    -0.78900
O410        O  0.73238114  0.46174408  0.15617483    -0.80500
O411        O  0.65982479  0.59753510  0.09885328    -0.77500
O412        O  0.81893313  0.60634979  0.09077300    -0.75900
O413        O  0.87922216  0.56201937  0.05584783    -0.77700
O414        O  0.59958329  0.56313727  0.05408681    -0.78600
O415        O  0.73751606  0.54563272  0.15298528    -0.79900
O416        O  0.74135860  0.66080737  0.03871746    -0.80200
Eu417      Eu  0.73950586  0.57493388  0.06733005     2.39200
O418        O  0.78486894  0.50405548  0.07101444    -0.87700
O419        O  0.69426887  0.57923091  0.99643001    -0.91300
C420        C  0.74373982  0.68407158  0.99667542     1.03400
C421        C  0.73514330  0.50337499  0.17595020     1.03200
C422        C  0.61497540  0.58785864  0.08942767     1.03100
C423        C  0.86379862  0.59700162  0.08108936     1.01000
H424        H  0.66576587  0.50871274  0.09748045     0.30700
O425        O  0.68562592  0.50731452  0.06772623    -1.00100
H426        H  0.81344675  0.60605545  0.00148820     0.30800
O427        O  0.79354872  0.57630968  0.99978852    -1.02700
O428        O  0.72785698  0.35226738  0.04487152    -0.79900
O429        O  0.75174678  0.55496953  0.84435835    -0.79400
O430        O  0.59005420  0.46494318  0.06897313    -0.77900
O431        O  0.86920454  0.44159097  0.05519562    -0.81200
O432        O  0.88909253  0.57770335  0.95705032    -0.79100
O433        O  0.61008859  0.56402645  0.93364876    -0.77700
O434        O  0.66174945  0.42539174  0.89253815    -0.79200
O435        O  0.81756400  0.40143463  0.91666645    -0.81100
O436        O  0.60024313  0.46276004  0.93382797    -0.77900
O437        O  0.87892667  0.44235680  0.95463615    -0.80600
O438        O  0.64374830  0.42208226  0.11380432    -0.76300
O439        O  0.67642544  0.60424621  0.89162143    -0.76300
O440        O  0.83528471  0.62289812  0.91473754    -0.76000
O441        O  0.80287181  0.39908668  0.09492782    -0.79500
O442        O  0.73422919  0.35688673  0.96094502    -0.78900
O443        O  0.74542420  0.47093676  0.84816683    -0.77200
Eu444      Eu  0.72714629  0.43609219  0.07240864     2.39800
Eu445      Eu  0.75201905  0.58130703  0.92854802     2.39600
Eu446      Eu  0.63911734  0.50901051  0.99853455     2.38400
Eu447      Eu  0.84005129  0.50703602  0.00089485     2.39900
Eu448      Eu  0.73966456  0.44171933  0.93270731     2.39800
O449        O  0.79823774  0.50993615  0.92709907    -0.91600
O450        O  0.68113296  0.43525743  0.00088921    -0.90500
C451        C  0.73328241  0.33369449  0.00277072     1.03500
C452        C  0.74646710  0.51301731  0.82534409     1.02300
C453        C  0.60097573  0.43906049  0.10757664     1.01600
C454        C  0.84887810  0.40579979  0.08271064     1.03700
C455        C  0.87812849  0.61647916  0.93140852     1.02600
C456        C  0.63043463  0.59187627  0.89814813     1.01400
C457        C  0.61719817  0.43865389  0.89782020     1.01500
C458        C  0.86199300  0.40646161  0.93032558     1.04100
H459        H  0.68103617  0.51366940  0.90403018     0.31500
O460        O  0.69804881  0.51258121  0.93385559    -1.03800
H461        H  0.79803503  0.41266413  0.00463079     0.33500
O462        O  0.78095953  0.44249648  0.00370880    -1.06400
O463        O  0.25260278  0.66726159  0.95607591    -0.78900
O464        O  0.22833342  0.46470813  0.15810766    -0.80500
O465        O  0.16302312  0.62054772  0.08358326    -0.77500
O466        O  0.31704310  0.59153036  0.11236555    -0.75900
O467        O  0.37872943  0.55450935  0.07129214    -0.77700
O468        O  0.10078083  0.57948070  0.04722602    -0.78600
O469        O  0.23613556  0.54865761  0.15447233    -0.79900
O470        O  0.24422211  0.66286771  0.03991785    -0.80200
Eu471      Eu  0.24030159  0.57809600  0.07021951     2.39200
O472        O  0.27565681  0.50774616  0.05994914    -0.87700
O473        O  0.19941547  0.57641053  0.99922184    -0.91300
C474        C  0.24581935  0.68588243  0.99789881     1.03400
C475        C  0.23486348  0.50648268  0.17706358     1.03200
C476        C  0.11845409  0.61587033  0.07027260     1.03100
C477        C  0.36134618  0.57772423  0.10762053     1.01000
H478        H  0.15844027  0.51051632  0.10454048     0.30700
O479        O  0.18080256  0.51049070  0.07606932    -1.00100
H480        H  0.32156541  0.61295827  0.00231531     0.30800
O481        O  0.29899472  0.58460927  0.00213881    -1.02700
O482        O  0.23330397  0.35528498  0.04701738    -0.79900
O483        O  0.24607328  0.55821472  0.84652675    -0.79400
O484        O  0.08999322  0.44225058  0.04374545    -0.77900
O485        O  0.36837772  0.45784817  0.07237778    -0.81200
O486        O  0.38962607  0.55234120  0.93475242    -0.79100
O487        O  0.11083545  0.58087957  0.95002176    -0.77700
O488        O  0.15986783  0.41234574  0.91621024    -0.79200
O489        O  0.31855980  0.42549556  0.90245579    -0.81100
O490        O  0.09943298  0.45836266  0.94804934    -0.77900
O491        O  0.37896261  0.45613372  0.94920828    -0.80600
O492        O  0.14439834  0.39601124  0.08374153    -0.76300
O493        O  0.17783438  0.62309862  0.91143161    -0.76300
O494        O  0.33564433  0.59239641  0.88804173    -0.76000
O495        O  0.30151697  0.41880154  0.11420430    -0.79500
O496        O  0.23827241  0.35960278  0.96324714    -0.78900
O497        O  0.24010968  0.47435320  0.85022093    -0.77200
Eu498      Eu  0.22732468  0.43913214  0.07405716     2.39800
Eu499      Eu  0.25284655  0.58330350  0.93041265     2.39600
Eu500      Eu  0.13892012  0.51380666  0.00237132     2.38400
Eu501      Eu  0.33996752  0.51037243  0.00571788     2.39900
Eu502      Eu  0.23938665  0.44574930  0.93609011     2.39800
O503        O  0.29528239  0.51256548  0.93551036    -0.91600
O504        O  0.18439540  0.44417233  0.00364956    -0.90500
C505        C  0.23638562  0.33604130  0.00510219     1.03500
C506        C  0.24237928  0.51648415  0.82699634     1.02300
C507        C  0.10141895  0.40266679  0.06759685     1.01600
C508        C  0.34746333  0.43115394  0.10830397     1.03700
C509        C  0.37847199  0.57617150  0.89507161     1.02600
C510        C  0.13181436  0.61696007  0.92351236     1.01400
C511        C  0.11501774  0.42224780  0.92457215     1.01500
C512        C  0.36337887  0.43317933  0.91273386     1.04100
H513        H  0.17473899  0.51779219  0.90352779     0.31500
O514        O  0.19379746  0.51649709  0.93222698    -1.03800
H515        H  0.30440052  0.41148509  0.00761933     0.33500
O516        O  0.28541414  0.44026514  0.00674005    -1.06400
C517        C  0.00562346  0.77017027  0.81836381     0.87700
C518        C  0.04546510  0.73527206  0.83048355    -0.52500
C519        C  0.05228809  0.72988615  0.87904860     0.10600
C520        C  0.01892076  0.76034811  0.91090664     0.21600
C521        C  0.95994343  0.75051596  0.84867478    -0.53300
C522        C  0.96682666  0.74124583  0.89678776     0.10700
C523        C  0.02150943  0.81854195  0.83950876    -0.52800
C524        C  0.02933906  0.81480937  0.88842151     0.11300
H525        H  0.06408665  0.71398099  0.80347562     0.15800
H526        H  0.02456288  0.75603031  0.95069878     0.01600
H527        H  0.92768866  0.73592028  0.83146900     0.16100
H528        H  0.02167308  0.85344237  0.81874659     0.15900
C529        C  0.98812732  0.26778098  0.82134376     0.87700
C530        C  0.94068934  0.28278380  0.84679147    -0.52500
C531        C  0.94423815  0.29047023  0.89528766     0.10600
C532        C  0.99443118  0.27665968  0.91492276     0.21600
C533        C  0.02707978  0.30612960  0.83341329    -0.53300
C534        C  0.03002464  0.31097650  0.88228811     0.10700
C535        C  0.00155213  0.22135025  0.84824068    -0.52800
C536        C  0.00470428  0.22421731  0.89785725     0.11300
H537        H  0.91024133  0.29513588  0.82621536     0.15800
H538        H  0.99690874  0.28070972  0.95485520     0.01600
H539        H  0.04807460  0.32961861  0.80592363     0.16100
H540        H  0.00627508  0.18781043  0.82926485     0.15900
C541        C  0.50410722  0.68948223  0.74043959     0.87700
C542        C  0.45909641  0.65834693  0.76060611    -0.52500
C543        C  0.46729567  0.61057823  0.77085927     0.10600
C544        C  0.51993109  0.59761077  0.75253540     0.21600
C545        C  0.54405577  0.67954963  0.77573780    -0.53300
C546        C  0.55216860  0.63134910  0.78256110     0.10700
C547        C  0.52088952  0.66776410  0.69290818    -0.52800
C548        C  0.52975921  0.61916289  0.69765936     0.11300
H549        H  0.42627175  0.67497518  0.77462594     0.15800
H550        H  0.52678666  0.55809224  0.75778604     0.01600
H551        H  0.56151140  0.70771656  0.79657912     0.16100
H552        H  0.52052746  0.68776704  0.65766230     0.15900
C553        C  0.48875198  0.68567490  0.24646844     0.87700
C554        C  0.52766263  0.67376123  0.20824116    -0.52500
C555        C  0.53020823  0.62494648  0.20268480     0.10600
C556        C  0.49430079  0.59201274  0.23645490     0.21600
C557        C  0.44116791  0.66077959  0.23100702    -0.53300
C558        C  0.44428966  0.61222402  0.22298734     0.10700
C559        C  0.50181566  0.65806391  0.29257049    -0.52800
C560        C  0.50448634  0.60836145  0.28905766     0.11300
H561        H  0.54887126  0.70144219  0.18513997     0.15800
H562        H  0.49654117  0.55208080  0.23187280     0.01600
H563        H  0.41084149  0.68172773  0.21896718     0.16100
H564        H  0.50648645  0.67654589  0.32637384     0.15900
C565        C  0.97477613  0.24838469  0.18158055     0.87700
C566        C  0.01990241  0.26856919  0.15064191    -0.52500
C567        C  0.01202998  0.27854410  0.10282249     0.10600
C568        C  0.95951106  0.26001868  0.08961869     0.21600
C569        C  0.93479093  0.28357552  0.17115757    -0.53300
C570        C  0.92699755  0.29016574  0.12291704     0.10700
C571        C  0.95825496  0.20057115  0.15993682    -0.52800
C572        C  0.94963145  0.20512771  0.11129424     0.11300
H573        H  0.05261476  0.28273308  0.16736289     0.15800
H574        H  0.95290904  0.26508673  0.05008503     0.01600
H575        H  0.91712436  0.30458023  0.19903291     0.16100
H576        H  0.95853889  0.16534226  0.18004731     0.15900
C577        C  0.99074464  0.75536382  0.17757316     0.87700
C578        C  0.95229655  0.71629471  0.16648986    -0.52500
C579        C  0.94945352  0.71001882  0.11791649     0.10600
C580        C  0.98474014  0.74391199  0.08434214     0.21600
C581        C  0.03844677  0.74029414  0.15263240    -0.53300
C582        C  0.03509587  0.73144924  0.10435669     0.10700
C583        C  0.97674089  0.80091453  0.14950590    -0.52800
C584        C  0.97399629  0.79673031  0.09994353     0.11300
H585        H  0.93142881  0.69337516  0.19454706     0.15800
H586        H  0.98229373  0.73867960  0.04460035     0.01600
H587        H  0.06909515  0.72897854  0.17349504     0.16100
H588        H  0.97186979  0.83499203  0.16750709     0.15900
C589        C  0.49036823  0.32938322  0.75898340     0.87700
C590        C  0.53774029  0.35443537  0.77467742    -0.52500
C591        C  0.53443205  0.40301179  0.78241960     0.10600
C592        C  0.48452892  0.42306905  0.76816975     0.21600
C593        C  0.45107076  0.34149529  0.79685768    -0.53300
C594        C  0.44839879  0.39043312  0.80187791     0.10700
C595        C  0.47767909  0.35659093  0.71255141    -0.52800
C596        C  0.47468876  0.40626040  0.71563047     0.11300
H597        H  0.56793841  0.33357771  0.78720352     0.15800
H598        H  0.48221952  0.46305702  0.77235834     0.01600
H599        H  0.42966183  0.31397397  0.81995963     0.16100
H600        H  0.47313592  0.33775724  0.67892922     0.15900
C601        C  0.47371255  0.32740224  0.26238379     0.87700
C602        C  0.43372835  0.33931473  0.22760808    -0.52500
C603        C  0.42695995  0.38794321  0.22181229     0.10600
C604        C  0.46057450  0.42006440  0.25191678     0.21600
C605        C  0.51937955  0.35754123  0.24238083    -0.53300
C606        C  0.51257920  0.40567402  0.23272266     0.10700
C607        C  0.45810038  0.34893609  0.31053461    -0.52800
C608        C  0.45038094  0.39791940  0.30654882     0.11300
H609        H  0.41500314  0.31208247  0.20663103     0.15800
H610        H  0.45501425  0.45990961  0.24734321     0.01600
H611        H  0.55153800  0.34011861  0.22786691     0.16100
H612        H  0.45798450  0.32833557  0.34548747     0.15900
O613        O  0.57063530  0.39274748  0.43294355    -0.78900
O614        O  0.45166427  0.47688337  0.66140134    -0.80500
O615        O  0.60502632  0.43906957  0.58219424    -0.77500
O616        O  0.45847757  0.34883112  0.53940378    -0.75900
O617        O  0.39603898  0.37660907  0.49522771    -0.77700
O618        O  0.63595007  0.51838857  0.56940925    -0.78600
O619        O  0.49578940  0.41440651  0.63365900    -0.79900
O620        O  0.55609403  0.36071875  0.51149406    -0.80200
Eu621      Eu  0.51686073  0.42465572  0.54901921     2.39200
O622        O  0.43711359  0.45589891  0.55415709    -0.87700
O623        O  0.56865933  0.47712561  0.49755550    -0.91300
C624        C  0.57269518  0.35773435  0.46765210     1.03400
C625        C  0.47355303  0.43577799  0.66796566     1.03200
C626        C  0.63947834  0.47434353  0.58518275     1.03100
C627        C  0.41745253  0.34225115  0.51739856     1.01000
H628        H  0.53445884  0.50026159  0.61257729     0.30700
O629        O  0.52064658  0.50265280  0.58089432    -1.00100
H630        H  0.48167402  0.39784032  0.45702068     0.30800
O631        O  0.48393332  0.42951816  0.47094300    -1.02700
O632        O  0.40940657  0.62364711  0.57135477    -0.79900
O633        O  0.52770303  0.53816825  0.34360277    -0.79400
O634        O  0.55876372  0.58923782  0.61767611    -0.77900
O635        O  0.32981359  0.47079622  0.53286236    -0.81200
O636        O  0.42050060  0.42871285  0.38629487    -0.79100
O637        O  0.64848604  0.54703040  0.47196155    -0.77700
O638        O  0.51972758  0.66707919  0.46347590    -0.79200
O639        O  0.37443801  0.57817670  0.42067756    -0.81100
O640        O  0.58066545  0.64049860  0.51029276    -0.77900
O641        O  0.34228079  0.49951519  0.43494164    -0.80600
O642        O  0.48019795  0.57405874  0.64983689    -0.76300
O643        O  0.62178298  0.50016020  0.41116433    -0.76300
O644        O  0.49989981  0.44140426  0.35563713    -0.76000
O645        O  0.35754133  0.51431042  0.59571457    -0.79500
O646        O  0.42290229  0.65482904  0.49233064    -0.78900
O647        O  0.48135625  0.59937465  0.37038899    -0.77200
Eu648      Eu  0.44239987  0.53542669  0.58570607     2.39800
Eu649      Eu  0.53686766  0.48049400  0.41964620     2.39600
Eu650      Eu  0.57231001  0.55551839  0.53002918     2.38400
Eu651      Eu  0.40584616  0.46146999  0.47454360     2.39900
Eu652      Eu  0.46190511  0.59101038  0.45515860     2.39800
O653        O  0.45858218  0.51311792  0.42330677    -0.91600
O654        O  0.49422945  0.58721277  0.53351728    -0.90500
C655        C  0.40676201  0.65822293  0.53620759     1.03500
C656        C  0.50469351  0.57848409  0.33653992     1.02300
C657        C  0.52402941  0.59098035  0.65273274     1.01600
C658        C  0.32315322  0.49241261  0.57407809     1.03700
C659        C  0.45580112  0.42577065  0.35190432     1.02600
C660        C  0.65559897  0.52399830  0.43168717     1.01400
C661        C  0.55998711  0.67423711  0.48648597     1.01500
C662        C  0.33945075  0.54343090  0.41827422     1.04100
H663        H  0.56332667  0.58192725  0.42876441     0.31500
O664        O  0.54187412  0.56047705  0.45016619    -1.03800
H665        H  0.37889626  0.55342581  0.50992018     0.33500
O666        O  0.41060113  0.53952317  0.50769363    -1.06400
O667        O  0.10536745  0.92884710  0.06865591    -0.78900
O668        O  0.02098600  0.04764687  0.83985292    -0.80500
O669        O  0.05922241  0.89459168  0.91920447    -0.77500
O670        O  0.14952744  0.04105760  0.96204301    -0.75900
O671        O  0.12181198  0.10366418  0.00599504    -0.77700
O672        O  0.97986268  0.86372592  0.93189717    -0.78600
O673        O  0.08346597  0.00364752  0.86778076    -0.79900
O674        O  0.13745543  0.94337858  0.99012671    -0.80200
Eu675      Eu  0.07359088  0.98269111  0.95240559     2.39200
O676        O  0.04223211  0.06235857  0.94703807    -0.87700
O677        O  0.02103548  0.93097955  0.00385566    -0.91300
C678        C  0.14038297  0.92674247  0.03397702     1.03400
C679        C  0.06209686  0.02572419  0.83338259     1.03200
C680        C  0.02393051  0.86018181  0.91615643     1.03100
C681        C  0.15617270  0.08213884  0.98395709     1.01000
H682        H  0.99785317  0.96511396  0.88893344     0.30700
O683        O  0.99550363  0.97897421  0.92059039    -1.00100
H684        H  0.10051432  0.01785680  0.04432165     0.30800
O685        O  0.06881675  0.01558793  0.03042813    -1.02700
O686        O  0.87423333  0.08991755  0.93027605    -0.79900
O687        O  0.96005375  0.97161836  0.15784927    -0.79400
O688        O  0.90902556  0.94058807  0.88363595    -0.77900
O689        O  0.02767074  0.16960711  0.96826622    -0.81200
O690        O  0.06991081  0.07903766  0.11478966    -0.79100
O691        O  0.95126079  0.85117595  0.02935103    -0.77700
O692        O  0.83118328  0.97976646  0.03822574    -0.79200
O693        O  0.92053044  0.12515127  0.08086767    -0.81100
O694        O  0.85763934  0.91895060  0.99118166    -0.77900
O695        O  0.99915500  0.15729156  0.06614420    -0.80600
O696        O  0.92391342  0.01918186  0.85150675    -0.76300
O697        O  0.99819272  0.87787749  0.09010629    -0.76300
O698        O  0.05710013  0.99970171  0.14556282    -0.76000
O699        O  0.98372799  0.14199080  0.90564758    -0.79500
O700        O  0.84346237  0.07687067  0.00949646    -0.78900
O701        O  0.89880363  0.01796589  0.13116739    -0.77200
Eu702      Eu  0.96255495  0.05712027  0.91565093     2.39800
Eu703      Eu  0.01774255  0.96276101  0.08176365     2.39600
Eu704      Eu  0.94263404  0.92731226  0.97136309     2.38400
Eu705      Eu  0.03692532  0.09364020  0.02662690     2.39900
Eu706      Eu  0.90729577  0.03768905  0.04640582     2.39800
O707        O  0.98526796  0.04110018  0.07812631    -0.91600
O708        O  0.91083593  0.00536018  0.96799653    -0.90500
C709        C  0.83981320  0.09270750  0.96556216     1.03500
C710        C  0.91968816  0.99453429  0.16496418     1.02300
C711        C  0.90720491  0.97527978  0.84855783     1.01600
C712        C  0.00589243  0.17631112  0.92715332     1.03700
C713        C  0.07285793  0.04375983  0.14919832     1.02600
C714        C  0.97437662  0.84406848  0.06956842     1.01400
C715        C  0.82395341  0.93954284  0.01516321     1.01500
C716        C  0.95533144  0.16013646  0.08304589     1.04100
H717        H  0.91634200  0.93626764  0.07266462     0.31500
O718        O  0.93777687  0.95772727  0.05125659    -1.03800
H719        H  0.94486710  0.12061242  0.99149482     0.33500
O720        O  0.95873637  0.08889546  0.99369171    -1.06400
C721        C  0.08008054  0.38726942  0.90978243    -0.12100
C722        C  0.05614735  0.35213743  0.89937895    -0.13600
C723        C  0.03883908  0.32341393  0.08156567    -0.12100
C724        C  0.06484432  0.36121474  0.07427182    -0.13600
C725        C  0.08708683  0.65607765  0.07927146    -0.12100
C726        C  0.06342926  0.69167009  0.08658182    -0.13600
C727        C  0.10212892  0.65560183  0.90865944    -0.12100
C728        C  0.07972186  0.69058701  0.89744519    -0.13600
C729        C  0.42212990  0.40751144  0.84284552    -0.12100
C730        C  0.39823566  0.41810637  0.87786107    -0.13600
C731        C  0.41502059  0.58260373  0.85375639    -0.12100
C732        C  0.44081688  0.58959048  0.81589285    -0.13600
C733        C  0.41617645  0.59392557  0.18333304    -0.12100
C734        C  0.39266515  0.58645052  0.14775344    -0.13600
C735        C  0.37707790  0.41666365  0.14715593    -0.12100
C736        C  0.39948438  0.40597336  0.18230569    -0.13600
C737        C  0.53911201  0.42600501  0.18732020    -0.12100
C738        C  0.56467787  0.43240252  0.14917937    -0.13600
C739        C  0.57987576  0.60091177  0.12501084    -0.12100
C740        C  0.55589800  0.60888414  0.16088810    -0.13600
C741        C  0.57864511  0.61526136  0.82356756    -0.12100
C742        C  0.60045789  0.60617697  0.85953061    -0.13600
C743        C  0.56193355  0.42133245  0.82255715    -0.12100
C744        C  0.58534842  0.42900676  0.85821002    -0.13600
C745        C  0.87892210  0.36716218  0.09698025    -0.12100
C746        C  0.90067300  0.33117818  0.10638624    -0.13600
C747        C  0.89365336  0.36660612  0.92100129    -0.12100
C748        C  0.91687591  0.33074309  0.91355987    -0.13600
C749        C  0.91454000  0.65799379  0.92446726    -0.12100
C750        C  0.94018539  0.69607976  0.91761498    -0.13600
C751        C  0.89896590  0.63233198  0.09469661    -0.12100
C752        C  0.92334612  0.66806112  0.10254461    -0.13600
C753        C  0.25305268  0.51465363  0.26835153    -0.12100
C754        C  0.24451543  0.50718054  0.22706304    -0.13600
C755        C  0.73827916  0.50433983  0.27124634    -0.12100
C756        C  0.73596573  0.50287764  0.22780003    -0.13600
C757        C  0.23634067  0.51457624  0.73202567    -0.12100
C758        C  0.23968468  0.51662672  0.77531242    -0.13600
C759        C  0.73736358  0.51185914  0.77514747    -0.12100
C760        C  0.72851230  0.50385584  0.73399778    -0.13600
C761        C  0.99303107  0.25477477  0.27394449    -0.12100
C762        C  0.98528340  0.24640207  0.23268433    -0.13600
C763        C  0.98236437  0.25926285  0.72572426    -0.12100
C764        C  0.98429727  0.26283106  0.76900135    -0.13600
C765        C  0.80798966  0.43507055  0.41420303    -0.12100
C766        C  0.84364990  0.41150213  0.42143721    -0.13600
C767        C  0.84417892  0.39660081  0.59306036    -0.12100
C768        C  0.80927243  0.41905350  0.60444712    -0.13600
C769        C  0.14705790  0.44300929  0.60160111    -0.12100
C770        C  0.11186566  0.41911913  0.59129784    -0.13600
C771        C  0.17609807  0.46041859  0.41961010    -0.12100
C772        C  0.13839955  0.43427325  0.42704554    -0.13600
C773        C  0.08119146  0.10079935  0.62349578    -0.12100
C774        C  0.09133688  0.07680701  0.65858559    -0.13600
C775        C  0.90884263  0.05814875  0.68521725    -0.12100
C776        C  0.91626455  0.08397893  0.64740738    -0.13600
C777        C  0.91296366  0.10583851  0.35375666    -0.12100
C778        C  0.90491726  0.08223329  0.31838277    -0.13600
C779        C  0.08305987  0.12199609  0.35407286    -0.12100
C780        C  0.09341492  0.09959953  0.31885278    -0.13600
C781        C  0.99578910  0.76332786  0.27323400    -0.12100
C782        C  0.99425342  0.76109731  0.22979225    -0.13600
C783        C  0.98828095  0.76182072  0.72581182    -0.12100
C784        C  0.99604523  0.77091297  0.76695968    -0.13600
C785        C  0.16857835  0.59885148  0.39487283    -0.12100
C786        C  0.13248292  0.62051531  0.40399061    -0.13600
C787        C  0.13311327  0.60529609  0.57989674    -0.12100
C788        C  0.16896049  0.58203853  0.58734420    -0.13600
C789        C  0.84158842  0.58393746  0.57630408    -0.12100
C790        C  0.80346480  0.55832363  0.58310165    -0.13600
C791        C  0.86745035  0.59948320  0.40621539    -0.12100
C792        C  0.83174850  0.57504208  0.39835217    -0.13600
C793        C  0.06595293  0.93445203  0.35164025    -0.12100
C794        C  0.07226797  0.96010049  0.31353057    -0.13600
C795        C  0.89735680  0.91861395  0.37652823    -0.12100
C796        C  0.88926206  0.94245258  0.34058973    -0.13600
C797        C  0.89317533  0.89781730  0.64200695    -0.12100
C798        C  0.88400595  0.91974935  0.67787757    -0.13600
C799        C  0.06988155  0.91364533  0.64286530    -0.12100
C800        C  0.07718065  0.93704590  0.67862712    -0.13600
C801        C  0.25673159  0.74541361  0.50714036    -0.12100
C802        C  0.21568145  0.75475904  0.49912432    -0.13600
C803        C  0.25849321  0.25630233  0.49863419    -0.12100
C804        C  0.21524789  0.26004158  0.49665726    -0.13600
C805        C  0.75157377  0.24236824  0.99346540    -0.12100
C806        C  0.74267231  0.28358102  0.00120605    -0.13600
C807        C  0.23908045  0.28433740  0.00464153    -0.12100
C808        C  0.24268787  0.24104354  0.00262768    -0.13600
C809        C  0.76347233  0.75596569  0.50511353    -0.12100
C810        C  0.72001759  0.75849167  0.50401885    -0.13600
C811        C  0.74028670  0.77927513  0.99765606    -0.12100
C812        C  0.74271787  0.73583518  0.99646547    -0.13600
C813        C  0.23614147  0.73592916  0.99863238    -0.12100
C814        C  0.22730470  0.77723671  0.00572717    -0.13600
C815        C  0.26359282  0.00713951  0.24668621    -0.12100
C816        C  0.22251844  0.01510256  0.23736446    -0.13600
C817        C  0.71645703  0.01429705  0.24816168    -0.12100
C818        C  0.76001843  0.01314149  0.25038928    -0.13600
C819        C  0.40648757  0.82172226  0.45110679    -0.12100
C820        C  0.41273531  0.85981679  0.42538213    -0.13600
C821        C  0.59122759  0.84995583  0.43415664    -0.12100
C822        C  0.58299693  0.88569283  0.41004160    -0.13600
C823        C  0.40922991  0.15142085  0.40549841    -0.12100
C824        C  0.40185538  0.18704486  0.42916244    -0.13600
C825        C  0.49096791  0.23469836  0.25451203    -0.12100
C826        C  0.48321420  0.27591621  0.26351236    -0.13600
C827        C  0.48554864  0.73811741  0.25151010    -0.12100
C828        C  0.48416401  0.78164296  0.25375493    -0.13600
C829        C  0.63794821  0.08582141  0.07623496    -0.12100
C830        C  0.67603036  0.09234827  0.05051676    -0.13600
C831        C  0.64797101  0.90745681  0.06728135    -0.12100
C832        C  0.61211946  0.91535859  0.09139170    -0.13600
C833        C  0.31125450  0.90450036  0.08940594    -0.12100
C834        C  0.34710609  0.91343065  0.11150350    -0.13600
C835        C  0.34637846  0.08964773  0.09680357    -0.12100
C836        C  0.31089670  0.09736351  0.07301585    -0.13600
C837        C  0.76352247  0.26114948  0.50135507    -0.12100
C838        C  0.72210122  0.26975394  0.49446855    -0.13600
C839        C  0.58441867  0.15098011  0.38999760    -0.12100
C840        C  0.59343571  0.18690635  0.41190883    -0.13600
C841        C  0.26420656  0.00275174  0.75176118    -0.12100
C842        C  0.22094306  0.00466162  0.74822215    -0.13600
C843        C  0.71607360  0.01113148  0.75474536    -0.12100
C844        C  0.75762417  0.00415949  0.76260046    -0.13600
C845        C  0.39943790  0.13173801  0.59226063    -0.12100
C846        C  0.38944015  0.16713393  0.56867405    -0.13600
C847        C  0.56355744  0.15663820  0.57668131    -0.12100
C848        C  0.57082260  0.19433624  0.55066154    -0.13600
C849        C  0.56857449  0.86266978  0.59778459    -0.12100
C850        C  0.57635072  0.82727287  0.57409419    -0.13600
C851        C  0.38606150  0.82833620  0.59016416    -0.12100
C852        C  0.39680339  0.86347444  0.61251724    -0.13600
C853        C  0.49565680  0.23375930  0.75033407    -0.12100
C854        C  0.49387205  0.27705722  0.75385796    -0.13600
C855        C  0.49352171  0.74051657  0.73796985    -0.12100
C856        C  0.48625253  0.78196906  0.74593480    -0.13600
C857        C  0.36670095  0.09875121  0.90968881    -0.12100
C858        C  0.33147022  0.10919618  0.93330210    -0.13600
C859        C  0.34121138  0.93510469  0.92482532    -0.12100
C860        C  0.30345968  0.92821771  0.95080233    -0.13600
C861        C  0.67104320  0.92237410  0.92737718    -0.12100
C862        C  0.63560815  0.92973086  0.90357967    -0.13600
C863        C  0.66975145  0.11173437  0.91126395    -0.12100
C864        C  0.63469723  0.10070343  0.88892471    -0.13600
loop_ 
_geom_bond_atom_site_label_1 
_geom_bond_atom_site_label_2 
_geom_bond_distance 
_geom_bond_site_symmetry_2 
_ccdc_geom_bond_type 
O1           C12   1.289       .  A
O1          Eu37   2.449       .  S
O2           C13   1.297       .  A
O2          Eu36   2.501       .  S
O3           C14   1.287       .  A
O3           Eu9   2.437       .  S
O4           C15   1.287       .  A
O4           Eu9   2.442       .  S
O5           C15   1.286       .  A
O5          Eu39   2.439       .  S
O6           C14   1.282   1_565  A
O6          Eu38   2.411       .  S
O7           C13   1.294       .  A
O7           Eu9   2.488       .  S
O8           C12   1.287       .  A
O8           Eu9   2.437       .  S
Eu9          O19   2.375       .  S
Eu9          O11   2.318       .  S
Eu9          O10   2.306       .  S
Eu9          O17   2.387       .  S
O10         Eu39   2.320       .  S
O10         Eu36   2.326       .  S
O11         Eu37   2.311       .  S
O11         Eu38   2.291   1_545  S
C12         C864   1.421       .  S
C13         C847   1.470       .  S
C14         C843   1.408       .  S
C15         C853   1.420       .  S
H16          O17   0.968       .  S
O17         Eu38   2.397   1_545  S
O17         Eu36   2.369       .  S
H18          O19   0.966       .  S
O19         Eu37   2.375       .  S
O19         Eu39   2.358       .  S
O20          C43   1.289       .  A
O20         Eu36   2.450   1_565  S
O21          C44   1.297       .  A
O21         Eu37   2.499   1_565  S
O22          C45   1.291       .  A
O22         Eu38   2.470       .  S
O23          C46   1.282       .  A
O23         Eu39   2.413       .  S
O24          C47   1.282       .  A
O24         Eu39   2.414       .  S
O25          C48   1.292       .  A
O25         Eu38   2.472       .  S
O26          C49   1.287       .  A
O26         Eu40   2.436       .  S
O27          C50   1.286   1_565  A
O27         Eu40   2.440       .  S
O28          C49   1.282       .  A
O28         Eu38   2.411       .  S
O29          C50   1.286       .  A
O29         Eu39   2.438       .  S
O30          C45   1.293       .  A
O30         Eu36   2.472   1_565  S
O31          C48   1.292       .  A
O31         Eu37   2.471   1_565  S
O32          C47   1.285       .  A
O32         Eu37   2.429       .  S
O33          C46   1.285       .  A
O33         Eu36   2.428       .  S
O34          C43   1.287       .  A
O34         Eu40   2.438       .  S
O35          C44   1.294       .  A
O35         Eu40   2.488       .  S
Eu36         O54   2.375       .  S
Eu36         O42   2.311   1_545  S
Eu37         O41   2.325       .  S
Eu37         O52   2.370   1_545  S
Eu38         O52   2.397       .  S
Eu38         O42   2.292       .  S
Eu39         O41   2.319       .  S
Eu39         O54   2.359       .  S
Eu40         O41   2.305   1_565  S
Eu40         O52   2.387       .  S
Eu40         O54   2.375   1_565  S
Eu40         O42   2.317       .  S
C43         C852   1.421       .  S
C44         C859   1.469       .  S
C45         C849   1.450       .  S
C46         C845   1.404       .  S
C47         C857   1.405       .  S
C48         C862   1.451       .  S
C49         C856   1.408       .  S
C50         C841   1.418       .  S
H51          O52   0.968       .  S
H53          O54   0.966       .  S
C55          C56   1.526       .  S
C55          C61   1.521       .  S
C55          C59   1.521       .  S
C55         C838   1.441       .  S
C56          H63   1.089       .  S
C56          C57   1.356       .  D
C57          C58   1.566       .  S
C57         C848   1.475       .  S
C58          C62   1.592       .  S
C58          C60   1.541       .  S
C58          H64   1.111       .  S
C59          H65   1.088       .  S
C59          C60   1.354       .  D
C60         C840   1.430       .  S
C61          H66   1.087       .  S
C61          C62   1.366       .  D
C62         C624   1.497       .  S
O67          C78   1.291       .  A
O67        Eu103   2.459       .  S
O68          C79   1.300       .  A
O68        Eu102   2.517       .  S
O69          C80   1.287       .  A
O69         Eu75   2.444       .  S
O70          C81   1.290       .  A
O70         Eu75   2.453       .  S
O71          C81   1.281       .  A
O71        Eu105   2.409       .  S
O72          C80   1.286   1_565  A
O72        Eu104   2.442       .  S
O73          C79   1.297       .  A
O73         Eu75   2.501       .  S
O74          C78   1.288       .  A
O74         Eu75   2.445       .  S
Eu75         O85   2.327       .  S
Eu75         O77   2.377       .  S
Eu75         O76   2.383       .  S
Eu75         O83   2.310       .  S
O76        Eu105   2.395       .  S
O76        Eu102   2.373       .  S
O77        Eu103   2.381       .  S
O77        Eu104   2.357   1_545  S
C78         C839   1.422       .  S
C79         C829   1.473       .  S
C80         C817   1.423       .  S
C81         C825   1.412       .  S
H82          O83   0.961       .  S
O83        Eu104   2.310   1_545  S
O83        Eu102   2.338       .  S
H84          O85   0.961       .  S
O85        Eu103   2.330       .  S
O85        Eu105   2.298       .  S
O86         C109   1.291       .  A
O86        Eu102   2.459   1_565  S
O87         C110   1.300       .  A
O87        Eu103   2.516   1_565  S
O88         C111   1.284       .  A
O88        Eu104   2.426       .  S
O89         C112   1.294       .  A
O89        Eu105   2.483       .  S
O90         C113   1.294       .  A
O90        Eu105   2.484       .  S
O91         C114   1.284       .  A
O91        Eu104   2.426       .  S
O92         C115   1.287       .  A
O92        Eu106   2.445       .  S
O93         C116   1.289   1_565  A
O93        Eu106   2.452       .  S
O94         C115   1.286       .  A
O94        Eu104   2.441       .  S
O95         C116   1.281       .  A
O95        Eu105   2.407       .  S
O96         C111   1.285       .  A
O96        Eu102   2.431   1_565  S
O97         C114   1.285       .  A
O97        Eu103   2.431   1_565  S
O98         C113   1.295       .  A
O98        Eu103   2.483       .  S
O99         C112   1.295       .  A
O99        Eu102   2.485       .  S
O100        C109   1.289       .  A
O100       Eu106   2.447       .  S
O101        C110   1.297       .  A
O101       Eu106   2.502       .  S
Eu102       O120   2.330       .  S
Eu102       O108   2.381   1_545  S
Eu103       O107   2.374       .  S
Eu103       O118   2.337   1_545  S
Eu104       O118   2.310       .  S
Eu104       O108   2.358       .  S
Eu105       O107   2.395       .  S
Eu105       O120   2.299       .  S
Eu106       O107   2.384   1_565  S
Eu106       O118   2.310       .  S
Eu106       O120   2.328   1_565  S
Eu106       O108   2.376       .  S
C109        C834   1.423       .  S
C110        C820   1.473       .  S
C111        C832   1.406       .  S
C112        C835   1.455       .  S
C113        C823   1.454       .  S
C114        C822   1.406       .  S
C115        C828   1.422       .  S
C116        C815   1.411       .  S
H117        O118   0.961       .  S
H119        O120   0.961       .  S
C121        C122   1.526   1_554  S
C121        C127   1.520       .  S
C121        C125   1.521       .  S
C121        C814   1.440       .  S
C122        H129   1.089       .  S
C122        C123   1.355       .  D
C123        C124   1.565   1_556  S
C123        C860   1.474       .  S
C124        C128   1.593       .  S
C124        C126   1.542       .  S
C124        H130   1.111       .  S
C125        H131   1.088       .  S
C125        C126   1.354       .  D
C126        C833   1.431       .  S
C127        H132   1.087       .  S
C127        C128   1.366       .  D
C128        C678   1.496       .  S
C133        C134   1.514       .  S
C133        C139   1.507       .  S
C133        C137   1.528   1_554  S
C133        C811   1.452   1_554  S
C134        H141   1.088       .  S
C134        C135   1.357       .  D
C135        C136   1.542       .  S
C135        C831   1.415       .  S
C136        C140   1.566       .  S
C136        C138   1.556   1_554  S
C136        H142   1.111       .  S
C137        H143   1.088       .  S
C137        C138   1.364       .  D
C138        C861   1.457       .  S
C139        H144   1.088       .  S
C139        C140   1.373       .  D
C140        C715   1.502       .  S
C145        C146   1.515       .  S
C145        C151   1.507       .  S
C145        C149   1.528       .  S
C145        C810   1.453       .  S
C146        H153   1.088       .  S
C146        C147   1.357       .  D
C147        C148   1.541       .  S
C147        C821   1.415       .  S
C148        C152   1.565       .  S
C148        C150   1.555       .  S
C148        H154   1.111       .  S
C149        H155   1.088       .  S
C149        C150   1.364       .  D
C150        C850   1.456       .  S
C151        H156   1.088       .  S
C151        C152   1.373       .  D
C152        C661   1.501       .  S
C157        C158   1.528   1_556  S
C157        C163   1.507       .  S
C157        C161   1.518       .  S
C157        C808   1.455   1_556  S
C158        H165   1.088       .  S
C158        C159   1.364       .  D
C159        C160   1.559   1_554  S
C159        C836   1.461       .  S
C160        C164   1.567       .  S
C160        C162   1.538       .  S
C160        H166   1.111       .  S
C161        H167   1.088       .  S
C161        C162   1.359       .  D
C162        C858   1.414       .  S
C163        H168   1.088       .  S
C163        C164   1.373       .  D
C164        C681   1.504       .  S
C169        C170   1.523       .  S
C169        C175   1.523       .  S
C169        C173   1.526   1_556  S
C169        C805   1.444       .  S
C170        H177   1.088       .  S
C170        C171   1.355       .  D
C171        C172   1.537       .  S
C171        C863   1.428       .  S
C172        C176   1.592       .  S
C172        C174   1.568   1_556  S
C172        H178   1.111       .  S
C173        H179   1.089       .  S
C173        C174   1.355       .  D
C174        C830   1.479       .  S
C175        H180   1.087       .  S
C175        C176   1.367       .  D
C176        C709   1.498       .  S
C181        C182   1.527       .  S
C181        C187   1.506       .  S
C181        C185   1.517       .  S
C181        C803   1.453       .  S
C182        H189   1.088       .  S
C182        C183   1.364       .  D
C183        C184   1.559       .  S
C183        C824   1.461       .  S
C184        C188   1.566       .  S
C184        C186   1.538       .  S
C184        H190   1.111       .  S
C185        H191   1.088       .  S
C185        C186   1.359       .  D
C186        C846   1.413       .  S
C187        H192   1.088       .  S
C187        C188   1.372       .  D
C188        C627   1.503       .  S
C193        C194   1.523       .  S
C193        C199   1.523       .  S
C193        C197   1.526       .  S
C193        C801   1.444       .  S
C194        H201   1.088       .  S
C194        C195   1.355       .  D
C195        C196   1.537       .  S
C195        C851   1.428       .  S
C196        C200   1.593       .  S
C196        C198   1.568       .  S
C196        H202   1.111       .  S
C197        H203   1.089       .  S
C197        C198   1.355       .  D
C198        C819   1.479       .  S
C199        H204   1.087       .  S
C199        C200   1.368       .  D
C200        C655   1.498       .  S
O205        C216   1.286       .  A
O205       Eu241   2.439       .  S
O206        C217   1.287   1_455  A
O206       Eu240   2.444       .  S
O207        C218   1.284       .  A
O207       Eu213   2.426       .  S
O208        C219   1.285       .  A
O208       Eu213   2.427       .  S
O209        C219   1.285       .  A
O209       Eu243   2.431       .  S
O210        C218   1.286       .  A
O210       Eu242   2.432       .  S
O211        C217   1.286       .  A
O211       Eu213   2.440       .  S
O212        C216   1.286       .  A
O212       Eu213   2.437       .  S
Eu213       O223   2.309       .  S
Eu213       O215   2.358       .  S
Eu213       O214   2.356       .  S
Eu213       O221   2.307       .  S
O214       Eu243   2.381       .  S
O214       Eu240   2.377   1_655  S
O215       Eu241   2.377       .  S
O215       Eu242   2.380       .  S
C216        C809   1.419       .  S
C217        C781   1.422       .  S
C218        C795   1.407       .  S
C219        C791   1.407       .  S
H220        O221   0.961       .  S
O221       Eu242   2.336       .  S
O221       Eu240   2.307   1_655  S
H222        O223   0.961       .  S
O223       Eu241   2.310       .  S
O223       Eu243   2.336       .  S
O224        C247   1.289       .  A
O224       Eu240   2.453       .  S
O225        C248   1.290       .  A
O225       Eu241   2.454       .  S
O226        C249   1.300       .  A
O226       Eu242   2.517   1_455  S
O227        C250   1.291       .  A
O227       Eu243   2.460   1_455  S
O228        C251   1.300       .  A
O228       Eu243   2.517       .  S
O229        C252   1.291       .  A
O229       Eu242   2.462       .  S
O230        C253   1.293       .  A
O230       Eu244   2.482       .  S
O231        C254   1.293       .  A
O231       Eu244   2.480       .  S
O232        C253   1.294       .  A
O232       Eu242   2.482   1_455  S
O233        C254   1.294       .  A
O233       Eu243   2.481   1_455  S
O234        C249   1.297       .  A
O234       Eu240   2.502       .  S
O235        C252   1.288       .  A
O235       Eu241   2.445       .  S
O236        C251   1.297       .  A
O236       Eu241   2.499       .  S
O237        C250   1.288       .  A
O237       Eu240   2.445       .  S
O238        C247   1.281       .  A
O238       Eu244   2.406       .  S
O239        C248   1.281   1_455  A
O239       Eu244   2.408       .  S
Eu240       O258   2.327       .  S
Eu240       O246   2.384       .  S
Eu241       O245   2.381       .  S
Eu241       O256   2.327       .  S
Eu242       O256   2.331       .  S
Eu242       O246   2.374   1_655  S
Eu243       O245   2.374       .  S
Eu243       O258   2.330   1_655  S
Eu244       O245   2.394   1_455  S
Eu244       O256   2.299   1_455  S
Eu244       O258   2.299       .  S
Eu244       O246   2.395       .  S
C247        C802   1.411       .  S
C248        C783   1.413       .  S
C249        C793   1.473       .  S
C250        C786   1.423       .  S
C251        C789   1.472       .  S
C252        C797   1.423       .  S
C253        C799   1.453       .  S
C254        C787   1.452       .  S
H255        O256   0.961       .  S
H257        O258   0.961       .  S
O259        C270   1.287       .  A
O259       Eu295   2.439       .  S
O260        C271   1.288   1_455  A
O260       Eu294   2.443       .  S
O261        C272   1.293       .  A
O261       Eu267   2.484       .  S
O262        C273   1.290       .  A
O262       Eu267   2.467       .  S
O263        C273   1.292       .  A
O263       Eu297   2.470       .  S
O264        C272   1.292       .  A
O264       Eu296   2.472       .  S
O265        C271   1.280       .  A
O265       Eu267   2.403       .  S
O266        C270   1.283       .  A
O266       Eu267   2.419       .  S
Eu267       O277   2.394       .  S
Eu267       O269   2.297       .  S
Eu267       O275   2.396       .  S
Eu267       O268   2.222       .  S
O268       Eu297   2.243       .  S
O268       Eu294   2.248   1_655  S
O269       Eu295   2.324       .  S
O269       Eu296   2.320       .  S
C270        C837   1.410       .  S
C271        C761   1.409       .  S
C272        C766   1.452       .  S
C273        C777   1.450       .  S
H274        O275   0.968       .  S
O275       Eu296   2.372       .  S
O275       Eu294   2.385   1_655  S
H276        O277   0.968       .  S
O277       Eu295   2.389       .  S
O277       Eu297   2.368       .  S
O278        C301   1.288       .  A
O278       Eu294   2.455       .  S
O279        C302   1.287       .  A
O279       Eu295   2.447       .  S
O280        C303   1.298       .  A
O280       Eu296   2.507   1_455  S
O281        C304   1.289       .  A
O281       Eu297   2.449   1_455  S
O282        C305   1.298       .  A
O282       Eu297   2.515       .  S
O283        C306   1.290       .  A
O283       Eu296   2.453       .  S
O284        C307   1.283       .  A
O284       Eu298   2.417       .  S
O285        C308   1.282       .  A
O285       Eu298   2.414       .  S
O286        C307   1.285       .  A
O286       Eu296   2.430   1_455  S
O287        C308   1.286       .  A
O287       Eu297   2.440   1_455  S
O288        C303   1.296       .  A
O288       Eu294   2.501       .  S
O289        C306   1.287       .  A
O289       Eu295   2.438       .  S
O290        C305   1.294       .  A
O290       Eu295   2.488       .  S
O291        C304   1.286       .  A
O291       Eu294   2.433       .  S
O292        C301   1.285       .  A
O292       Eu298   2.436       .  S
O293        C302   1.287   1_455  A
O293       Eu298   2.443       .  S
Eu294       O312   2.373       .  S
Eu294       O300   2.311       .  S
Eu295       O299   2.310       .  S
Eu295       O310   2.375       .  S
Eu296       O310   2.375       .  S
Eu296       O300   2.328   1_655  S
Eu297       O299   2.331       .  S
Eu297       O312   2.370   1_655  S
Eu298       O299   2.324   1_455  S
Eu298       O310   2.356   1_455  S
Eu298       O312   2.366       .  S
Eu298       O300   2.325       .  S
C301        C804   1.420       .  S
C302        C763   1.423       .  S
C303        C772   1.473       .  S
C304        C779   1.422       .  S
C305        C776   1.472       .  S
C306        C767   1.422       .  S
C307        C770   1.407       .  S
C308        C773   1.407       .  S
H309        O310   0.966       .  S
H311        O312   0.965       .  S
C313        C314   1.524       .  S
C313        C319   1.524       .  S
C313        C317   1.525       .  S
C313        C760   1.446       .  S
C314        H321   1.088       .  S
C314        C315   1.356       .  D
C315        C316   1.537       .  S
C315        C768   1.429       .  S
C316        C320   1.591       .  S
C316        C318   1.568       .  S
C316        H322   1.111       .  S
C317        H323   1.089       .  S
C317        C318   1.355       .  D
C318        C790   1.478       .  S
C319        H324   1.087       .  S
C319        C320   1.368       .  D
C320        C626   1.498       .  S
C325        C326   1.527       .  S
C325        C331   1.508       .  S
C325        C329   1.518       .  S
C325        C757   1.456       .  S
C326        H333   1.088       .  S
C326        C327   1.364       .  D
C327        C328   1.558       .  S
C327        C788   1.459       .  S
C328        C332   1.567       .  S
C328        C330   1.539       .  S
C328        H334   1.111       .  S
C329        H335   1.087       .  S
C329        C330   1.359       .  D
C330        C769   1.416       .  S
C331        H336   1.088       .  S
C331        C332   1.374       .  D
C332        C658   1.506       .  S
C337        C338   1.515   1_545  S
C337        C343   1.508   1_545  S
C337        C341   1.529       .  S
C337        C818   1.456       .  S
C338        H345   1.088       .  S
C338        C339   1.357       .  D
C339        C340   1.540   1_565  S
C339        C796   1.415       .  S
C340        C344   1.565   1_545  S
C340        C342   1.556       .  S
C340        H346   1.111       .  S
C341        H347   1.088       .  S
C341        C342   1.365       .  D
C342        C778   1.457       .  S
C343        H348   1.088       .  S
C343        C344   1.374       .  D
C344        C710   1.503       .  S
C349        C350   1.526   1_565  S
C349        C355   1.519       .  S
C349        C353   1.521       .  S
C349        C844   1.440   1_565  S
C350        H357   1.089       .  S
C350        C351   1.356       .  D
C351        C352   1.566   1_545  S
C351        C775   1.476       .  S
C352        C356   1.593       .  S
C352        C354   1.542       .  S
C352        H358   1.111       .  S
C353        H359   1.088       .  S
C353        C354   1.354       .  D
C354        C798   1.431       .  S
C355        H360   1.087       .  S
C355        C356   1.365       .  D
C356        C711   1.497       .  S
C361        C362   1.515       .  S
C361        C367   1.509       .  S
C361        C365   1.528       .  S
C361        C755   1.456       .  S
C362        H369   1.088       .  S
C362        C363   1.357       .  D
C363        C364   1.542       .  S
C363        C792   1.416       .  S
C364        C368   1.566       .  S
C364        C366   1.556       .  S
C364        H370   1.111       .  S
C365        H371   1.088       .  S
C365        C366   1.364       .  D
C366        C765   1.457       .  S
C367        H372   1.088       .  S
C367        C368   1.375       .  D
C368        C660   1.505       .  S
C373        C374   1.527       .  S
C373        C379   1.522       .  S
C373        C377   1.522       .  S
C373        C753   1.444       .  S
C374        H381   1.089       .  S
C374        C375   1.356       .  D
C375        C376   1.566       .  S
C375        C771   1.477       .  S
C376        C380   1.593       .  S
C376        C378   1.541       .  S
C376        H382   1.111       .  S
C377        H383   1.088       .  S
C377        C378   1.355       .  D
C378        C785   1.431       .  S
C379        H384   1.087       .  S
C379        C380   1.367       .  D
C380        C662   1.498       .  S
C385        C386   1.523       .  S
C385        C391   1.523       .  S
C385        C389   1.525   1_545  S
C385        C816   1.444       .  S
C386        H393   1.088       .  S
C386        C387   1.355       .  D
C387        C388   1.539       .  S
C387        C780   1.430       .  S
C388        C392   1.594       .  S
C388        C390   1.569   1_545  S
C388        H394   1.111       .  S
C389        H395   1.089       .  S
C389        C390   1.355       .  D
C390        C794   1.479       .  S
C391        H396   1.087       .  S
C391        C392   1.368       .  D
C392        C713   1.500       .  S
C397        C398   1.527   1_545  S
C397        C403   1.506       .  S
C397        C401   1.517       .  S
C397        C842   1.452       .  S
C398        H405   1.088       .  S
C398        C399   1.364       .  D
C399        C400   1.559   1_565  S
C399        C800   1.460       .  S
C400        C404   1.566       .  S
C400        C402   1.538       .  S
C400        H406   1.111       .  S
C401        H407   1.088       .  S
C401        C402   1.358       .  D
C402        C774   1.414       .  S
C403        H408   1.088       .  S
C403        C404   1.373       .  D
C404        C679   1.505       .  S
O409        C420   1.286       .  A
O409       Eu445   2.438       .  S
O410        C421   1.287       .  A
O410       Eu444   2.444       .  S
O411        C422   1.284       .  A
O411       Eu417   2.426       .  S
O412        C423   1.284       .  A
O412       Eu417   2.426       .  S
O413        C423   1.285       .  A
O413       Eu447   2.431       .  S
O414        C422   1.285       .  A
O414       Eu446   2.431   1_554  S
O415        C421   1.286       .  A
O415       Eu417   2.440       .  S
O416        C420   1.286   1_554  A
O416       Eu417   2.438       .  S
Eu417       O427   2.309   1_554  S
Eu417       O419   2.358   1_554  S
Eu417       O418   2.356       .  S
Eu417       O425   2.307       .  S
O418       Eu447   2.380       .  S
O418       Eu444   2.377       .  S
O419       Eu445   2.377       .  S
O419       Eu446   2.380       .  S
C420        C812   1.418       .  S
C421        C756   1.422       .  S
C422        C739   1.406       .  S
C423        C751   1.407       .  S
H424        O425   0.961       .  S
O425       Eu446   2.337   1_554  S
O425       Eu444   2.307       .  S
H426        O427   0.961   1_554  S
O427       Eu445   2.310       .  S
O427       Eu447   2.336   1_556  S
O428        C451   1.289       .  A
O428       Eu444   2.452       .  S
O429        C452   1.289       .  A
O429       Eu445   2.453       .  S
O430        C453   1.300       .  A
O430       Eu446   2.516   1_554  S
O431        C454   1.291       .  A
O431       Eu447   2.461       .  S
O432        C455   1.300       .  A
O432       Eu447   2.517   1_556  S
O433        C456   1.291       .  A
O433       Eu446   2.461       .  S
O434        C457   1.293       .  A
O434       Eu448   2.480       .  S
O435        C458   1.293       .  A
O435       Eu448   2.479       .  S
O436        C457   1.295       .  A
O436       Eu446   2.482       .  S
O437        C458   1.294       .  A
O437       Eu447   2.481   1_556  S
O438        C453   1.297       .  A
O438       Eu444   2.501       .  S
O439        C456   1.288       .  A
O439       Eu445   2.445       .  S
O440        C455   1.297       .  A
O440       Eu445   2.499       .  S
O441        C454   1.288       .  A
O441       Eu444   2.446       .  S
O442        C451   1.281   1_556  A
O442       Eu448   2.406       .  S
O443        C452   1.281       .  A
O443       Eu448   2.409       .  S
Eu444       O462   2.326       .  S
Eu444       O450   2.383       .  S
Eu445       O449   2.381       .  S
Eu445       O460   2.327       .  S
Eu446       O460   2.332       .  S
Eu446       O450   2.373   1_556  S
Eu447       O449   2.374   1_554  S
Eu447       O462   2.330       .  S
Eu448       O449   2.393       .  S
Eu448       O460   2.299       .  S
Eu448       O462   2.300   1_556  S
Eu448       O450   2.394   1_556  S
C451        C806   1.411       .  S
C452        C759   1.413       .  S
C453        C738   1.473       .  S
C454        C745   1.424       .  S
C455        C749   1.472       .  S
C456        C742   1.423       .  S
C457        C744   1.452       .  S
C458        C747   1.452       .  S
H459        O460   0.961       .  S
H461        O462   0.961       .  S
O463        C474   1.287       .  A
O463       Eu499   2.437       .  S
O464        C475   1.288       .  A
O464       Eu498   2.443       .  S
O465        C476   1.293       .  A
O465       Eu471   2.484       .  S
O466        C477   1.291       .  A
O466       Eu471   2.468       .  S
O467        C477   1.292       .  A
O467       Eu501   2.469       .  S
O468        C476   1.293       .  A
O468       Eu500   2.473       .  S
O469        C475   1.281       .  A
O469       Eu471   2.403       .  S
O470        C474   1.283   1_554  A
O470       Eu471   2.421       .  S
Eu471       O481   2.395       .  S
Eu471       O473   2.295   1_554  S
Eu471       O479   2.397       .  S
Eu471       O472   2.222       .  S
O472       Eu501   2.243       .  S
O472       Eu498   2.248       .  S
O473       Eu499   2.322       .  S
O473       Eu500   2.318   1_556  S
C474        C813   1.409       .  S
C475        C754   1.410       .  S
C476        C725   1.453       .  S
C477        C734   1.450       .  S
H478        O479   0.968       .  S
O479       Eu500   2.373       .  S
O479       Eu498   2.386       .  S
H480        O481   0.968       .  S
O481       Eu499   2.391   1_554  S
O481       Eu501   2.370       .  S
O482        C505   1.289       .  A
O482       Eu498   2.458       .  S
O483        C506   1.287       .  A
O483       Eu499   2.446       .  S
O484        C507   1.297       .  A
O484       Eu500   2.506       .  S
O485        C508   1.289       .  A
O485       Eu501   2.450       .  S
O486        C509   1.298       .  A
O486       Eu501   2.511   1_556  S
O487        C510   1.289       .  A
O487       Eu500   2.452   1_556  S
O488        C511   1.282       .  A
O488       Eu502   2.416       .  S
O489        C512   1.282       .  A
O489       Eu502   2.414       .  S
O490        C511   1.285       .  A
O490       Eu500   2.432   1_556  S
O491        C512   1.287       .  A
O491       Eu501   2.443   1_556  S
O492        C507   1.296       .  A
O492       Eu498   2.501       .  S
O493        C510   1.287       .  A
O493       Eu499   2.439       .  S
O494        C509   1.294       .  A
O494       Eu499   2.490       .  S
O495        C508   1.286       .  A
O495       Eu498   2.433       .  S
O496        C505   1.285   1_556  A
O496       Eu502   2.435       .  S
O497        C506   1.286       .  A
O497       Eu502   2.442       .  S
Eu498       O516   2.373       .  S
Eu498       O504   2.312       .  S
Eu499       O503   2.310       .  S
Eu499       O514   2.376       .  S
Eu500       O514   2.376   1_554  S
Eu500       O504   2.328       .  S
Eu501       O503   2.332   1_554  S
Eu501       O516   2.370       .  S
Eu502       O503   2.324       .  S
Eu502       O514   2.357       .  S
Eu502       O516   2.366   1_556  S
Eu502       O504   2.325   1_556  S
C505        C807   1.422       .  S
C506        C758   1.422       .  S
C507        C724   1.473       .  S
C508        C735   1.423       .  S
C509        C731   1.471       .  S
C510        C727   1.422       .  S
C511        C721   1.408       .  S
C512        C730   1.408       .  S
H513        O514   0.966       .  S
H515        O516   0.965       .  S
C517        C518   1.524       .  S
C517        C523   1.524       .  S
C517        C521   1.525   1_455  S
C517        C784   1.446   1_455  S
C518        H525   1.088       .  S
C518        C519   1.356       .  D
C519        C520   1.537       .  S
C519        C728   1.428       .  S
C520        C524   1.591       .  S
C520        C522   1.567   1_455  S
C520        H526   1.111       .  S
C521        H527   1.089       .  S
C521        C522   1.355       .  D
C522        C750   1.478       .  S
C523        H528   1.087       .  S
C523        C524   1.368       .  D
C524        C680   1.498       .  S
C529        C530   1.527       .  S
C529        C535   1.508   1_655  S
C529        C533   1.518   1_655  S
C529        C764   1.457       .  S
C530        H537   1.088       .  S
C530        C531   1.364       .  D
C531        C532   1.558       .  S
C531        C748   1.459       .  S
C532        C536   1.566   1_655  S
C532        C534   1.539   1_655  S
C532        H538   1.111       .  S
C533        H539   1.087       .  S
C533        C534   1.359       .  D
C534        C722   1.416       .  S
C535        H540   1.088       .  S
C535        C536   1.373       .  D
C536        C712   1.506       .  S
C541        C542   1.526       .  S
C541        C547   1.519       .  S
C541        C545   1.522       .  S
C541        C855   1.440       .  S
C542        H549   1.089       .  S
C542        C543   1.356       .  D
C543        C544   1.566       .  S
C543        C732   1.476       .  S
C544        C548   1.593       .  S
C544        C546   1.541       .  S
C544        H550   1.111       .  S
C545        H551   1.088       .  S
C545        C546   1.354       .  D
C546        C741   1.431       .  S
C547        H552   1.087       .  S
C547        C548   1.365       .  D
C548        C657   1.496       .  S
C553        C554   1.515       .  S
C553        C559   1.508       .  S
C553        C557   1.528       .  S
C553        C827   1.456       .  S
C554        H561   1.088       .  S
C554        C555   1.357       .  D
C555        C556   1.540       .  S
C555        C740   1.415       .  S
C556        C560   1.565       .  S
C556        C558   1.557       .  S
C556        H562   1.111       .  S
C557        H563   1.088       .  S
C557        C558   1.364       .  D
C558        C733   1.458       .  S
C559        H564   1.088       .  S
C559        C560   1.374       .  D
C560        C656   1.503       .  S
C565        C566   1.526   1_655  S
C565        C571   1.521       .  S
C565        C569   1.522       .  S
C565        C762   1.443       .  S
C566        H573   1.089       .  S
C566        C567   1.356       .  D
C567        C568   1.566   1_455  S
C567        C723   1.477       .  S
C568        C572   1.593       .  S
C568        C570   1.541       .  S
C568        H574   1.111       .  S
C569        H575   1.088       .  S
C569        C570   1.355       .  D
C570        C746   1.431       .  S
C571        H576   1.087       .  S
C571        C572   1.367       .  D
C572        C716   1.498       .  S
C577        C578   1.515       .  S
C577        C583   1.508       .  S
C577        C581   1.528   1_655  S
C577        C782   1.455       .  S
C578        H585   1.088       .  S
C578        C579   1.357       .  D
C579        C580   1.541       .  S
C579        C752   1.415       .  S
C580        C584   1.566       .  S
C580        C582   1.556   1_655  S
C580        H586   1.111       .  S
C581        H587   1.088       .  S
C581        C582   1.364       .  D
C582        C726   1.458       .  S
C583        H588   1.088       .  S
C583        C584   1.375       .  D
C584        C714   1.504       .  S
C589        C590   1.527       .  S
C589        C595   1.507       .  S
C589        C593   1.518       .  S
C589        C854   1.454       .  S
C590        H597   1.088       .  S
C590        C591   1.364       .  D
C591        C592   1.558       .  S
C591        C743   1.459       .  S
C592        C596   1.566       .  S
C592        C594   1.539       .  S
C592        H598   1.111       .  S
C593        H599   1.088       .  S
C593        C594   1.359       .  D
C594        C729   1.415       .  S
C595        H600   1.088       .  S
C595        C596   1.373       .  D
C596        C625   1.504       .  S
C601        C602   1.524       .  S
C601        C607   1.523       .  S
C601        C605   1.525       .  S
C601        C826   1.445       .  S
C602        H609   1.088       .  S
C602        C603   1.356       .  D
C603        C604   1.539       .  S
C603        C736   1.431       .  S
C604        C608   1.593       .  S
C604        C606   1.569       .  S
C604        H610   1.111       .  S
C605        H611   1.089       .  S
C605        C606   1.355       .  D
C606        C737   1.479       .  S
C607        H612   1.087       .  S
C607        C608   1.368       .  D
C608        C659   1.501       .  S
O613        C624   1.322       .  A
O613       Eu649   2.632       .  S
O614        C625   1.310       .  A
O614       Eu648   2.589       .  S
O615        C626   1.324       .  A
O615       Eu621   2.639       .  S
O616        C627   1.310       .  A
O616       Eu621   2.587       .  S
O617        C627   1.277       .  A
O617       Eu651   2.362       .  S
O618        C626   1.270       .  A
O618       Eu650   2.343       .  S
O619        C625   1.277       .  A
O619       Eu621   2.362       .  S
O620        C624   1.272       .  A
O620       Eu621   2.353       .  S
Eu621       O631   2.364       .  S
Eu621       O623   2.336       .  S
Eu621       O622   2.384       .  S
Eu621       O629   2.347       .  S
O622       Eu651   2.385       .  S
O622       Eu648   2.383       .  S
O623       Eu649   2.346       .  S
O623       Eu650   2.364       .  S
H628        O629   0.965       .  S
O629       Eu650   2.331       .  S
O629       Eu648   2.364       .  S
H630        O631   0.965       .  S
O631       Eu649   2.328       .  S
O631       Eu651   2.349       .  S
O632        C655   1.324       .  A
O632       Eu648   2.639       .  S
O633        C656   1.309       .  A
O633       Eu649   2.582       .  S
O634        C657   1.322       .  A
O634       Eu650   2.633       .  S
O635        C658   1.311       .  A
O635       Eu651   2.591       .  S
O636        C659   1.324       .  A
O636       Eu651   2.641       .  S
O637        C660   1.310       .  A
O637       Eu650   2.586       .  S
O638        C661   1.308       .  A
O638       Eu652   2.578       .  S
O639        C662   1.322       .  A
O639       Eu652   2.631       .  S
O640        C661   1.276       .  A
O640       Eu650   2.359       .  S
O641        C662   1.272       .  A
O641       Eu651   2.356       .  S
O642        C657   1.272       .  A
O642       Eu648   2.353       .  S
O643        C660   1.276       .  A
O643       Eu649   2.357       .  S
O644        C659   1.271       .  A
O644       Eu649   2.346       .  S
O645        C658   1.277       .  A
O645       Eu648   2.364       .  S
O646        C655   1.270       .  A
O646       Eu652   2.343       .  S
O647        C656   1.276       .  A
O647       Eu652   2.355       .  S
Eu648       O666   2.349       .  S
Eu648       O654   2.337       .  S
Eu649       O653   2.362       .  S
Eu649       O664   2.383       .  S
Eu650       O664   2.381       .  S
Eu650       O654   2.346       .  S
Eu651       O653   2.334       .  S
Eu651       O666   2.364       .  S
Eu652       O653   2.344       .  S
Eu652       O664   2.382       .  S
Eu652       O666   2.330       .  S
Eu652       O654   2.364       .  S
H663        O664   0.964       .  S
H665        O666   0.965       .  S
O667        C678   1.321       .  A
O667       Eu703   2.630       .  S
O668        C679   1.310       .  A
O668       Eu702   2.590   1_455  S
O669        C680   1.324       .  A
O669       Eu675   2.638       .  S
O670        C681   1.310       .  A
O670       Eu675   2.589   1_545  S
O671        C681   1.277   1_554  A
O671       Eu705   2.363       .  S
O672        C680   1.271   1_655  A
O672       Eu704   2.344       .  S
O673        C679   1.277       .  A
O673       Eu675   2.361   1_545  S
O674        C678   1.272   1_556  A
O674       Eu675   2.354       .  S
Eu675       O685   2.362   1_566  S
Eu675       O677   2.336   1_556  S
Eu675       O676   2.384   1_565  S
Eu675       O683   2.348   1_455  S
O676       Eu705   2.384   1_556  S
O676       Eu702   2.385   1_455  S
O677       Eu703   2.346       .  S
O677       Eu704   2.364   1_454  S
H682        O683   0.965       .  S
O683       Eu704   2.330       .  S
O683       Eu702   2.363   1_565  S
H684        O685   0.965       .  S
O685       Eu703   2.328   1_545  S
O685       Eu705   2.348       .  S
O686        C709   1.324       .  A
O686       Eu702   2.640       .  S
O687        C710   1.309       .  A
O687       Eu703   2.581   1_655  S
O688        C711   1.322       .  A
O688       Eu704   2.633       .  S
O689        C712   1.310       .  A
O689       Eu705   2.590   1_556  S
O690        C713   1.324       .  A
O690       Eu705   2.641       .  S
O691        C714   1.310       .  A
O691       Eu704   2.585   1_554  S
O692        C715   1.308       .  A
O692       Eu706   2.580   1_565  S
O693        C716   1.322       .  A
O693       Eu706   2.633       .  S
O694        C715   1.276   1_556  A
O694       Eu704   2.359       .  S
O695        C716   1.272       .  A
O695       Eu705   2.353   1_655  S
O696        C711   1.272   1_545  A
O696       Eu702   2.356       .  S
O697        C714   1.275       .  A
O697       Eu703   2.355   1_655  S
O698        C713   1.271   1_565  A
O698       Eu703   2.345       .  S
O699        C712   1.278   1_655  A
O699       Eu702   2.365       .  S
O700        C709   1.270   1_554  A
O700       Eu706   2.342       .  S
O701        C710   1.276   1_545  A
O701       Eu706   2.357       .  S
Eu702       O720   2.349       .  S
Eu702       O708   2.337       .  S
Eu703       O707   2.362   1_465  S
Eu703       O718   2.382   1_455  S
Eu704       O718   2.382   1_556  S
Eu704       O708   2.347   1_565  S
Eu705       O707   2.335   1_455  S
Eu705       O720   2.364   1_454  S
Eu706       O707   2.344       .  S
Eu706       O718   2.381   1_545  S
Eu706       O720   2.330   1_554  S
Eu706       O708   2.365   1_554  S
H717        O718   0.964       .  S
H719        O720   0.965       .  S
C721        C722   1.191       .  T
C723        C724   1.228       .  T
C725        C726   1.216       .  T
C727        C728   1.199       .  T
C729        C730   1.191       .  T
C731        C732   1.227       .  T
C733        C734   1.215       .  T
C735        C736   1.200       .  T
C737        C738   1.229       .  T
C739        C740   1.190       .  T
C741        C742   1.200       .  T
C743        C744   1.217       .  T
C745        C746   1.200       .  T
C747        C748   1.216       .  T
C749        C750   1.228       .  T
C751        C752   1.191       .  T
C753        C754   1.193       .  T
C755        C756   1.199       .  T
C757        C758   1.199       .  T
C759        C760   1.194       .  T
C761        C762   1.193       .  T
C763        C764   1.199       .  T
C765        C766   1.216       .  T
C767        C768   1.199       .  T
C769        C770   1.191       .  T
C771        C772   1.228       .  T
C773        C774   1.190       .  T
C775        C776   1.228       .  T
C777        C778   1.215       .  T
C779        C780   1.199       .  T
C781        C782   1.198       .  T
C783        C784   1.194       .  T
C785        C786   1.200       .  T
C787        C788   1.216       .  T
C789        C790   1.228       .  T
C791        C792   1.191       .  T
C793        C794   1.229       .  T
C795        C796   1.191       .  T
C797        C798   1.200       .  T
C799        C800   1.217       .  T
C801        C802   1.193       .  T
C803        C804   1.197       .  T
C805        C806   1.193   1_556  T
C807        C808   1.198       .  T
C809        C810   1.197       .  T
C811        C812   1.196       .  T
C813        C814   1.192   1_556  T
C815        C816   1.194       .  T
C817        C818   1.199       .  T
C819        C820   1.229       .  T
C821        C822   1.191       .  T
C823        C824   1.218       .  T
C825        C826   1.194       .  T
C827        C828   1.199       .  T
C829        C830   1.229       .  T
C831        C832   1.191       .  T
C833        C834   1.200       .  T
C835        C836   1.218       .  T
C837        C838   1.192       .  T
C839        C840   1.199       .  T
C841        C842   1.197       .  T
C843        C844   1.191       .  T
C845        C846   1.189       .  T
C847        C848   1.227       .  T
C849        C850   1.215       .  T
C851        C852   1.198       .  T
C853        C854   1.197       .  T
C855        C856   1.191       .  T
C857        C858   1.189       .  T
C859        C860   1.226       .  T
C861        C862   1.215       .  T
C863        C864   1.198       .  T
