geometry optimzed in LAMMPS
_audit_creation_date              2020-11-30 
_audit_creation_method            'lammps2cif' 
_symmetry_space_group_name_H-M    'P1' 
_symmetry_Int_Tables_number       1 
_symmetry_cell_setting            triclinic 
loop_ 
_symmetry_equiv_pos_as_xyz 
  x,y,z 
_cell_length_a                    37.38861553 
_cell_length_b                    43.755797797808114 
_cell_length_c                    38.359750200777434 
_cell_angle_alpha                 90.0220076994252 
_cell_angle_beta                  90.38717615658871 
_cell_angle_gamma                 90.26457269214309 
loop_ 
_atom_site_label 
_atom_site_type_symbol 
_atom_site_fract_x 
_atom_site_fract_y 
_atom_site_fract_z 
_atom_site_charge 
In1        In  0.84708091  0.21328688  0.41470925     1.36900
C2          C  0.85506104  0.15312971  0.42351255     0.77500
O3          O  0.87337544  0.24020075  0.45813470    -0.60900
O4          O  0.81690342  0.24100900  0.45504461    -0.51800
C5          C  0.90093092  0.23991546  0.38289700     0.70200
O6          O  0.90423397  0.21432602  0.39782018    -0.46700
C7          C  0.78994231  0.21380086  0.37305278     0.74900
O8          O  0.86197352  0.16687909  0.39564386    -0.58500
O9          O  0.78788265  0.20888312  0.40532628    -0.48600
O10         O  0.84585388  0.17030489  0.44825188    -0.55000
C11         C  0.84474622  0.25086408  0.47003389     0.85100
O12         O  0.87001852  0.25138045  0.38378044    -0.56900
O13         O  0.82094046  0.21948438  0.36225266    -0.60200
In14       In  0.84782212  0.05894002  0.42206557     1.36900
C15         C  0.79145820  0.05351390  0.37933750     0.77500
O16         O  0.84180889  0.01095433  0.44323499    -0.60900
O17         O  0.83371315  0.04830488  0.47761639    -0.51800
C18         C  0.91307879  0.04037489  0.40664611     0.70200
O19         O  0.88903339  0.04426818  0.38391649    -0.46700
C20         C  0.85529131  0.11965293  0.42520668     0.74900
O21         O  0.82209665  0.04418178  0.37138792    -0.58500
O22         O  0.84423700  0.10438832  0.45085128    -0.48600
O23         O  0.78919198  0.06434455  0.40964600    -0.55000
C24         C  0.83563191  0.01968872  0.47392706     0.85100
O25         O  0.90437892  0.04743706  0.43729650    -0.56900
O26         O  0.86432749  0.10384234  0.39942325    -0.60200
In27       In  0.20448914  0.21102286  0.41972343     1.36900
C28         C  0.25606085  0.21677395  0.37185290     0.77500
O29         O  0.20837342  0.25829018  0.44270424    -0.60900
O30         O  0.21999662  0.22030242  0.47542758    -0.51800
C31         C  0.13997587  0.23257346  0.40668175     0.70200
O32         O  0.16364764  0.23046725  0.38348959    -0.46700
C33         C  0.19732734  0.15032745  0.42658634     0.74900
O34         O  0.22386384  0.21190034  0.36402819    -0.58500
O35         O  0.22081471  0.16520681  0.44316979    -0.48600
O36         O  0.26186792  0.21983888  0.40401911    -0.55000
C37         C  0.21598434  0.24888548  0.47291826     0.85100
O38         O  0.14897145  0.22288534  0.43641190    -0.56900
O39         O  0.17669748  0.16652245  0.40855444    -0.60200
In40       In  0.19879223  0.05654125  0.41249261     1.36900
C41         C  0.19572824  0.11681594  0.42511383     0.77500
O42         O  0.17093180  0.02790898  0.45313996    -0.60900
O43         O  0.22724284  0.03161483  0.45628241    -0.51800
C44         C  0.14587367  0.02874014  0.37926422     0.70200
O45         O  0.14094704  0.05193615  0.39828017    -0.46700
C46         C  0.25322361  0.05361901  0.36852591     0.74900
O47         O  0.17556723  0.10316822  0.40391766    -0.58500
O48         O  0.25543994  0.04482536  0.39966572    -0.48600
O49         O  0.21589856  0.09944536  0.44234418    -0.55000
C50         C  0.19922985  0.01953255  0.46811319     0.85100
O51         O  0.17799923  0.02028475  0.37664556    -0.56900
O52         O  0.22293494  0.06328266  0.35942329    -0.60200
C53         C  0.02754260  0.31393879  0.35311393     0.86400
C54         C  0.05953216  0.29654366  0.36805187    -0.53800
C55         C  0.05969996  0.26620820  0.35972942     0.09400
C56         C  0.02771944  0.25581530  0.33724218     0.20300
C57         C  0.02792886  0.30734619  0.31372148    -0.54500
C58         C  0.02821826  0.27703600  0.30528535     0.09500
C59         C  0.99468039  0.29629001  0.36613173    -0.54000
C60         C  0.99452656  0.26600762  0.35753508     0.10000
H61         H  0.08091240  0.30753904  0.38280085     0.14600
H62         H  0.02770447  0.23106813  0.33079818     0.00300
H63         H  0.02820678  0.32530228  0.29418287     0.14900
H64         H  0.97289955  0.30628125  0.38047883     0.14700
C65         C  0.02213140  0.44660465  0.35660921     0.86400
C66         C  0.98857957  0.46209497  0.37121080    -0.53800
C67         C  0.98709641  0.49270214  0.36504046     0.09400
C68         C  0.01949496  0.01302572  0.33260367     0.20300
C69         C  0.02133503  0.45503685  0.31781849    -0.54500
C70         C  0.01984425  0.48567397  0.31131045     0.09500
C71         C  0.05364637  0.46453087  0.37184993    -0.54000
C72         C  0.05266765  0.49518876  0.36535664     0.10000
H73         H  0.96620746  0.45021343  0.38289659     0.14600
H74         H  0.02024999  0.03783775  0.32655470     0.00300
H75         H  0.02235457  0.43800361  0.29724707     0.14900
H76         H  0.07535248  0.45363633  0.38605417     0.14700
In77       In  0.70213812  0.20893643  0.30780924     1.36900
C78         C  0.69837278  0.14763685  0.30081840     0.77500
O79         O  0.70857714  0.25587873  0.28398423    -0.60900
O80         O  0.70204083  0.21855747  0.24950433    -0.51800
C81         C  0.64512209  0.23467568  0.33565983     0.70200
O82         O  0.64268300  0.21702256  0.30961788    -0.46700
C83         C  0.75884858  0.21238757  0.34979877     0.74900
O84         O  0.67499130  0.16299162  0.31650395    -0.58500
O85         O  0.76077392  0.21744285  0.31751351    -0.48600
O86         O  0.72228125  0.16367080  0.28661155    -0.55000
C87         C  0.70553176  0.24713135  0.25292343     0.85100
O88         O  0.67611355  0.23754153  0.34832326    -0.56900
O89         O  0.72811984  0.20553648  0.36052381    -0.60200
In90       In  0.70563991  0.05307033  0.31062501     1.36900
C91         C  0.76107174  0.05271023  0.35497703     0.77500
O92         O  0.71167276  0.00643402  0.28580881    -0.60900
O93         O  0.70891127  0.04465567  0.25225910    -0.51800
C94         C  0.64774467  0.02720644  0.33764701     0.70200
O95         O  0.67893966  0.02225587  0.34879013    -0.46700
C96         C  0.69927491  0.11382015  0.30151227     0.74900
O97         O  0.73014527  0.06072319  0.36367765    -0.58500
O98         O  0.72399297  0.09841819  0.28789513    -0.48600
O99         O  0.76386689  0.04470100  0.32355971    -0.55000
C100        C  0.71088180  0.01597195  0.25493822     0.85100
O101        O  0.64573126  0.04622213  0.31291810    -0.56900
O102        O  0.67670499  0.09799262  0.31790084    -0.60200
C103        C  0.52205556  0.31614181  0.35825666     0.86400
C104        C  0.48868571  0.29934327  0.34420553    -0.53800
C105        C  0.48723098  0.26911132  0.35292733     0.09400
C106        C  0.51962992  0.25802568  0.37408840     0.20300
C107        C  0.52258848  0.30950941  0.39760543    -0.54500
C108        C  0.52139720  0.27924679  0.40603602     0.09500
C109        C  0.55368621  0.29762796  0.34400572    -0.54000
C110        C  0.55234396  0.26727681  0.35236708     0.10000
H111        H  0.46709421  0.31076833  0.33040229     0.14600
H112        H  0.51875277  0.23330647  0.38061590     0.00300
H113        H  0.52353791  0.32746800  0.41716023     0.14900
H114        H  0.57531726  0.30687596  0.32855496     0.14700
C115        C  0.52253833  0.44980255  0.35794214     0.86400
C116        C  0.55424366  0.46832565  0.34352674    -0.53800
C117        C  0.55332075  0.49869455  0.35192810     0.09400
C118        C  0.52144958  0.00857626  0.37952308     0.20300
C119        C  0.52324309  0.45651575  0.39725189    -0.54500
C120        C  0.52227845  0.48679471  0.40555809     0.09500
C121        C  0.48932391  0.46654953  0.34399711    -0.54000
C122        C  0.48837787  0.49680464  0.35259729     0.10000
H123        H  0.57577801  0.45901201  0.32811790     0.14600
H124        H  0.52172390  0.03329446  0.38611482     0.00300
H125        H  0.52384097  0.43859765  0.41684192     0.14900
H126        H  0.46758123  0.45515796  0.33018549     0.14700
In127      In  0.33843363  0.21176749  0.30032622     1.36900
C128        C  0.28474179  0.21708605  0.34586286     0.77500
O129        O  0.33291894  0.25914842  0.27796510    -0.60900
O130        O  0.32221678  0.22134048  0.24470265    -0.51800
C131        C  0.40468326  0.23230065  0.31105573     0.70200
O132        O  0.38108415  0.23255485  0.33441036    -0.46700
C133        C  0.34528854  0.15080461  0.29715043     0.74900
O134        O  0.31689628  0.22211002  0.35383402    -0.58500
O135        O  0.33109945  0.16597613  0.27286604    -0.48600
O136        O  0.27957242  0.21083399  0.31416520    -0.55000
C137        C  0.32570347  0.24994845  0.24757773     0.85100
O138        O  0.39491432  0.22029975  0.28264260    -0.56900
O139        O  0.35707546  0.16676756  0.32196401    -0.60200
In140      In  0.34052105  0.05649352  0.30444031     1.36900
C141        C  0.34608149  0.11722537  0.29809012     0.77500
O142        O  0.36501489  0.03548068  0.25708476    -0.60900
O143        O  0.30993464  0.02700691  0.26606581    -0.51800
C144        C  0.39479403  0.02726862  0.33370232     0.70200
O145        O  0.39859448  0.05330777  0.31990302    -0.45100
C146        C  0.28386301  0.05353564  0.34524397     0.74900
O147        O  0.35532955  0.10289764  0.32506951    -0.58500
O148        O  0.28147793  0.06035002  0.31341182    -0.48600
O149        O  0.33589636  0.10043677  0.27318519    -0.55000
C150        C  0.33701646  0.02149653  0.24783347     0.85100
O151        O  0.36327638  0.01689549  0.33336709    -0.56900
O152        O  0.31494110  0.04749856  0.35591018    -0.60200
In153      In  0.84156708  0.30493133  0.05788347     1.36900
C154        C  0.84547065  0.36571736  0.04936193     0.77500
O155        O  0.86841530  0.28805428  0.00920711    -0.60900
O156        O  0.81658043  0.27103359  0.01971202    -0.51800
C157        C  0.89435544  0.27572254  0.08939242     0.70200
O158        O  0.89913053  0.30035770  0.07293247    -0.46700
C159        C  0.78657633  0.30376510  0.10142598     0.74900
O160        O  0.86539820  0.35099675  0.06973611    -0.58500
O161        O  0.78272418  0.30147692  0.06883128    -0.48600
O162        O  0.82470755  0.34925283  0.03127894    -0.55000
C163        C  0.84432059  0.27293739  0.49903219     0.85100
O164        O  0.86233072  0.26658725  0.09074746    -0.56900
O165        O  0.81849680  0.30598640  0.11181440    -0.60200
In166      In  0.84000818  0.46013123  0.05647118     1.36900
C167        C  0.78397989  0.46122119  0.09911004     0.77500
O168        O  0.82524777  0.00383637  0.03338168    -0.60900
O169        O  0.84679648  0.47307483  0.50276596    -0.51800
C170        C  0.89593585  0.48720259  0.08678225     0.70200
O171        O  0.86397478  0.49398409  0.09295968    -0.46700
C172        C  0.84505303  0.39937919  0.04921207     0.74900
O173        O  0.81570276  0.45862454  0.10966278    -0.58500
O174        O  0.82294862  0.41500368  0.03185250    -0.48600
O175        O  0.78046811  0.46276271  0.06643316    -0.55000
C176        C  0.83650005  0.49689090  0.00032305     0.85100
O177        O  0.89995050  0.46569394  0.06513328    -0.56900
O178        O  0.86555204  0.41489984  0.06857710    -0.60200
In179      In  0.19497528  0.30601746  0.04224163     1.36900
C180        C  0.24830916  0.30306522  0.08843328     0.77500
O181        O  0.21144715  0.25961147  0.02132172    -0.60900
O182        O  0.20565535  0.29623553  0.50283170    -0.51800
C183        C  0.13076503  0.28409169  0.05685487     0.70200
O184        O  0.15355324  0.29032669  0.08026406    -0.46700
C185        C  0.18757389  0.36659736  0.03594537     0.74900
O186        O  0.21704297  0.29436791  0.09544100    -0.58500
O187        O  0.20970041  0.35158077  0.01834416    -0.48600
O188        O  0.25261629  0.31211392  0.05759108    -0.55000
C189        C  0.20768478  0.26734308  0.98981683     0.85100
O190        O  0.14035678  0.29011818  0.02620194    -0.56900
O191        O  0.16817848  0.35060840  0.05547600    -0.60200
In192      In  0.19053812  0.46079489  0.04346282     1.36900
C193        C  0.18627989  0.40010772  0.03582592     0.77500
O194        O  0.20299992  0.50807707  0.02309748    -0.60900
O195        O  0.19543573  0.47186703  0.98672861    -0.51800
C196        C  0.12758928  0.48272605  0.06211140     0.70200
O197        O  0.13442191  0.47541129  0.03106588    -0.46700
C198        C  0.24521613  0.46362995  0.08810083     0.74900
O199        O  0.16520242  0.41496886  0.05469324    -0.58500
O200        O  0.24954135  0.46130530  0.05569377    -0.48600
O201        O  0.20777046  0.41635078  0.01878447    -0.55000
C202        C  0.21088614  0.49502873  0.50014138     0.85100
O203        O  0.16081287  0.97721257  0.08291549    -0.56900
O204        O  0.21320784  0.46604748  0.09746705    -0.60200
C205        C  0.02617942  0.06699212  0.10850831     0.86400
C206        C  0.99416535  0.04833729  0.09421118    -0.53800
C207        C  0.99449117  0.01822706  0.10371635     0.09400
C208        C  0.02679073  0.00930048  0.12626523     0.20300
C209        C  0.02562074  0.06146916  0.14795259    -0.54500
C210        C  0.02572138  0.03148428  0.15734985     0.09500
C211        C  0.05899617  0.04952928  0.09543645    -0.54000
C212        C  0.05938243  0.01942871  0.10501377     0.10000
H213        H  0.97340436  0.05725403  0.07729926     0.14600
H214        H  0.02130789  0.48298529  0.14303269     0.00300
H215        H  0.02413861  0.07992529  0.16684843     0.14900
H216        H  0.08051616  0.06018095  0.08086512     0.14700
C217        C  0.02243576  0.19997305  0.11323475     0.86400
C218        C  0.05229009  0.21876702  0.09621599    -0.53800
C219        C  0.05250666  0.24889985  0.10554111     0.09400
C220        C  0.02246107  0.25774406  0.13060268     0.20300
C221        C  0.02674082  0.20579147  0.15258898    -0.54500
C222        C  0.02656610  0.23593812  0.16185200     0.09500
C223        C  0.98790622  0.21703340  0.10311550    -0.54000
C224        C  0.98788283  0.24715533  0.11246035     0.10000
H225        H  0.07251580  0.20876017  0.07958293     0.14600
H226        H  0.02276742  0.28239037  0.13750604     0.00300
H227        H  0.02849483  0.18739365  0.17150712     0.14900
H228        H  0.96579523  0.20723849  0.08859900     0.14700
In229      In  0.32908859  0.46001269  0.15825114     1.36900
C230        C  0.33286836  0.39930816  0.16537571     0.77500
O231        O  0.33508067  0.46757867  0.21646000    -0.60900
O232        O  0.31651383  0.50421112  0.18531105    -0.51800
C233        C  0.38720634  0.48749942  0.13402137     0.70200
O234        O  0.38918282  0.46445003  0.15374814    -0.46700
C235        C  0.27492270  0.46265332  0.11306784     0.74900
O236        O  0.35437773  0.41463091  0.14712825    -0.58500
O237        O  0.27053473  0.46491172  0.14553169    -0.48600
O238        O  0.30991985  0.41508136  0.18123375    -0.55000
C239        C  0.32634474  0.49534531  0.21498796     0.85100
O240        O  0.36081767  0.00388251  0.13269265    -0.56900
O241        O  0.30679503  0.45879522  0.10377140    -0.60200
In242      In  0.33074019  0.30483105  0.16005388     1.36900
C243        C  0.27738174  0.30325774  0.11411421     0.77500
O244        O  0.31379600  0.26190574  0.18781801    -0.60900
O245        O  0.33675205  0.29750172  0.21817981    -0.51800
C246        C  0.38840153  0.27665094  0.13602182     0.70200
O247        O  0.35701670  0.26931121  0.12740195    -0.46700
C248        C  0.33350587  0.36565712  0.16606830     0.74900
O249        O  0.30906856  0.30962332  0.10590058    -0.58500
O250        O  0.31131159  0.34960037  0.18277109    -0.48600
O251        O  0.27272500  0.29761547  0.14600650    -0.55000
C252        C  0.32459266  0.27054902  0.21734804     0.85100
O253        O  0.39073467  0.29918745  0.15648771    -0.56900
O254        O  0.35537961  0.35053864  0.14820597    -0.60200
C255        C  0.51823644  0.20299348  0.11054937     0.86400
C256        C  0.48417561  0.21909986  0.12265424    -0.53800
C257        C  0.48320675  0.24964559  0.11502164     0.09400
C258        C  0.51664472  0.26141039  0.09598336     0.20300
C259        C  0.52080609  0.21018809  0.07164612    -0.54500
C260        C  0.51970672  0.24048979  0.06370483     0.09500
C261        C  0.54896664  0.22160437  0.12718642    -0.54000
C262        C  0.54817622  0.25207124  0.11941980     0.10000
H263        H  0.46290520  0.20730449  0.13640849     0.14600
H264        H  0.51589654  0.28619932  0.08980088     0.00300
H265        H  0.52371295  0.19252087  0.05196059     0.14900
H266        H  0.56998459  0.21230489  0.14345474     0.14700
C267        C  0.52152859  0.06945444  0.10995698     0.86400
C268        C  0.55261373  0.05189788  0.12712921    -0.53800
C269        C  0.55233414  0.02123228  0.12024439     0.09400
C270        C  0.52083975  0.01074568  0.09719475     0.20300
C271        C  0.52411255  0.06132053  0.07114070    -0.54500
C272        C  0.52338410  0.03069730  0.06417866     0.09500
C273        C  0.48781167  0.05299074  0.12259974    -0.54000
C274        C  0.48722283  0.02240284  0.11560240     0.10000
H275        H  0.57322358  0.06205918  0.14334418     0.14600
H276        H  0.51747143  0.48294185  0.09485725     0.00300
H277        H  0.52618221  0.07857824  0.05090314     0.14900
H278        H  0.46621391  0.06468917  0.13580319     0.14700
In279      In  0.70038792  0.30667566  0.16815993     1.36900
C280        C  0.69546429  0.36779234  0.17444111     0.77500
O281        O  0.70057674  0.29706698  0.22660539    -0.60900
O282        O  0.70795094  0.25995843  0.19227587    -0.51800
C283        C  0.64192442  0.28184107  0.14084604     0.70200
O284        O  0.64011115  0.30206246  0.16436652    -0.46700
C285        C  0.75623616  0.30440501  0.12531853     0.74900
O286        O  0.67456712  0.35210563  0.15566679    -0.58500
O287        O  0.75973358  0.30366992  0.15800113    -0.48600
O288        O  0.71778272  0.35217978  0.19154843    -0.55000
C289        C  0.70498239  0.26863222  0.22329804     0.85100
O290        O  0.67307197  0.27540209  0.13113339    -0.56900
O291        O  0.72447539  0.30623704  0.11466975    -0.60200
In292      In  0.69958220  0.46266232  0.16791338     1.36900
C293        C  0.75385551  0.46230027  0.12329450     0.77500
O294        O  0.71693088  0.00420653  0.19424786    -0.60900
O295        O  0.69608055  0.47106127  0.22612482    -0.51800
C296        C  0.64168963  0.49106372  0.14402884     0.70200
O297        O  0.67293232  0.49764800  0.13447162    -0.46700
C298        C  0.69523282  0.40158691  0.17444835     0.74900
O299        O  0.72171169  0.46102146  0.11339564    -0.58500
O300        O  0.71824530  0.41750025  0.19049568    -0.48600
O301        O  0.75823390  0.46436323  0.15582174    -0.55000
C302        C  0.70727014  0.49827608  0.22464642     0.85100
O303        O  0.63956974  0.46881062  0.16492849    -0.56900
O304        O  0.67320071  0.41697524  0.15672921    -0.60200
C305        C  0.58078554  0.00034237  0.13262855    -0.16500
C306        C  0.61086175  0.50930563  0.13243529    -0.31600
H307        H  0.57380349  0.97703082  0.13961706     0.12600
H308        H  0.61653605  0.53146617  0.12087350     0.13100
C309        C  0.61106327  0.26508215  0.12656655    -0.16500
C310        C  0.57687228  0.27322805  0.13094887    -0.31600
H311        H  0.61693704  0.24422786  0.11231841     0.12600
H312        H  0.57003636  0.29496346  0.14276490     0.13100
C313        C  0.49009653  0.15155201  0.10002404    -0.13400
C314        C  0.51746239  0.16859018  0.11630825     0.08800
C315        C  0.54453441  0.15268586  0.13429321    -0.13400
C316        C  0.54554560  0.12079315  0.13382535    -0.13400
C317        C  0.51956166  0.10387070  0.11529281     0.08800
C318        C  0.49122169  0.11976779  0.09938388    -0.13400
H319        H  0.46865912  0.16300390  0.08617192     0.12700
H320        H  0.56592063  0.16427543  0.14787777     0.12700
H321        H  0.56755260  0.11005678  0.14719508     0.12700
H322        H  0.47051543  0.10748807  0.08520769     0.12700
C323        C  0.41920874  0.25892668  0.12397106    -0.16500
C324        C  0.45292027  0.26955252  0.12472186    -0.31600
H325        H  0.41374480  0.23612975  0.11397050     0.12600
H326        H  0.45835210  0.29315320  0.13185313     0.13100
C327        C  0.42292285  0.01276858  0.12274373    -0.16500
C328        C  0.45664743  0.00242732  0.12419184    -0.31600
H329        H  0.41253711  0.52757637  0.11070660     0.12600
H330        H  0.46200985  0.97886975  0.13136274     0.13100
C331        C  0.99585584  0.11714865  0.09135497    -0.13400
C332        C  0.02687911  0.10118771  0.10122323     0.08800
C333        C  0.05732899  0.11826456  0.11101734    -0.13400
C334        C  0.05614189  0.15012088  0.11267829    -0.13400
C335        C  0.02439349  0.16594435  0.10490856     0.08800
C336        C  0.99464098  0.14894197  0.09309846    -0.13400
H337        H  0.97127730  0.10552401  0.08469079     0.12700
H338        H  0.08147899  0.10683625  0.11954901     0.12700
H339        H  0.07954832  0.16238798  0.12201491     0.12700
H340        H  0.96932493  0.15936949  0.08714348     0.12700
C341        C  0.08968203  0.99909312  0.09763668    -0.16500
C342        C  0.10409295  0.99792711  0.06582378    -0.31600
H343        H  0.10043573  0.98527907  0.11873185     0.12600
H344        H  0.07998015  0.51060576  0.05167063     0.13100
C345        C  0.09654005  0.26903171  0.06422170    -0.16500
C346        C  0.08168085  0.27000674  0.09586818    -0.31600
H347        H  0.08438480  0.25529011  0.04368789     0.12600
H348        H  0.09214805  0.28545553  0.11566951     0.13100
C349        C  0.92531395  0.50491297  0.10266520    -0.16500
C350        C  0.96566618  0.99664505  0.09360604    -0.31600
H351        H  0.91818679  0.52680664  0.11398815     0.12600
H352        H  0.97251660  0.97403678  0.08415665     0.13100
C353        C  0.95785879  0.26786617  0.10419218    -0.16500
C354        C  0.92386206  0.25778784  0.10414306    -0.31600
H355        H  0.96397087  0.29135433  0.09718343     0.12600
H356        H  0.91769141  0.23487083  0.11326015     0.13100
C357        C  0.54376346  0.02304267  0.45803008    -0.13400
C358        C  0.52315990  0.99755836  0.44835856     0.08800
C359        C  0.50413059  0.98159375  0.47423180    -0.13400
C360        C  0.54049721  0.99098196  0.02002738    -0.13400
C361        C  0.52337845  0.01855493  0.02802567     0.08800
C362        C  0.50639761  0.03488845  0.00109105    -0.13400
H363        H  0.55920247  0.03539047  0.43879914     0.12700
H364        H  0.48764772  0.96204397  0.46743163     0.12700
H365        H  0.55408849  0.97804530  0.04015043     0.12700
H366        H  0.49208562  0.05578463  0.00652876     0.12700
C367        C  0.45849372  0.01927411  0.34914861    -0.16500
C368        C  0.42453179  0.00914319  0.34777502    -0.31600
H369        H  0.44238239  0.52417552  0.36933059     0.12600
H370        H  0.41827228  0.98599514  0.35604458     0.13100
C371        C  0.50127041  0.24327761  0.45282640    -0.13400
C372        C  0.52221012  0.26834898  0.44263017     0.08800
C373        C  0.54350611  0.28337226  0.46773431    -0.13400
C374        C  0.54189685  0.27687129  0.01828815    -0.13400
C375        C  0.52159708  0.25108613  0.02715187     0.08800
C376        C  0.50444569  0.23422690  0.00059315    -0.13400
H377        H  0.48426875  0.23155083  0.43412236     0.12700
H378        H  0.56044303  0.30242698  0.46043963     0.12700
H379        H  0.55590790  0.28986380  0.03820569     0.12700
H380        H  0.48819589  0.21444039  0.00679160     0.12700
C381        C  0.45478922  0.25032045  0.34747386    -0.16500
C382        C  0.44015205  0.24653773  0.31577571    -0.31600
H383        H  0.44239918  0.24002102  0.37017491     0.12600
H384        H  0.45397651  0.25503581  0.29289229     0.13100
C385        C  0.55019043  0.36698366  0.33743029    -0.13400
C386        C  0.52132929  0.35051441  0.35173612     0.08800
C387        C  0.49182689  0.36705225  0.36400015    -0.13400
C388        C  0.49191660  0.39886415  0.36391177    -0.13400
C389        C  0.52152566  0.41542212  0.35153343     0.08800
C390        C  0.55029816  0.39897614  0.33733321    -0.13400
H391        H  0.57373983  0.35571194  0.32775824     0.12700
H392        H  0.46918485  0.35521949  0.37536855     0.12700
H393        H  0.46940051  0.41066762  0.37520737     0.12700
H394        H  0.57388928  0.41024490  0.32762920     0.12700
C395        C  0.61687115  0.01047412  0.35173323    -0.16500
C396        C  0.58278415  0.01881037  0.34635174    -0.31600
H397        H  0.62247246  0.98989549  0.36664417     0.12600
H398        H  0.57628336  0.54230199  0.33218747     0.13100
C399        C  0.61510358  0.25255107  0.34918426    -0.16500
C400        C  0.58079596  0.24578741  0.34226914    -0.31600
H401        H  0.62158195  0.27279532  0.36449327     0.12600
H402        H  0.57354359  0.22455885  0.32928806     0.13100
C403        C  0.00191361  0.49145787  0.21426406    -0.13400
C404        C  0.02298977  0.02171779  0.19406796     0.08800
C405        C  0.04146598  0.03762407  0.22047980    -0.13400
C406        C  0.03859575  0.02844413  0.25519157    -0.13400
C407        C  0.01714942  0.00325933  0.26405183     0.08800
C408        C  0.00103347  0.48136609  0.24872243    -0.13400
H409        H  0.98772483  0.47842209  0.19452331     0.12700
H410        H  0.05873016  0.05675594  0.21418759     0.12700
H411        H  0.05406594  0.04045772  0.27487036     0.12700
H412        H  0.98634229  0.46064002  0.25457067     0.12700
C413        C  0.00826768  0.28206641  0.24317113    -0.13400
C414        C  0.02780056  0.26614249  0.26869840     0.08800
C415        C  0.04701448  0.24005566  0.25897779    -0.13400
C416        C  0.04695827  0.23027158  0.22423792    -0.13400
C417        C  0.02757584  0.24638640  0.19866223     0.08800
C418        C  0.00816611  0.27230238  0.20856788    -0.13400
H419        H  0.99252336  0.30185340  0.25004068     0.12700
H420        H  0.06261837  0.22757114  0.27806634     0.12700
H421        H  0.06245424  0.21035366  0.21734291     0.12700
H422        H  0.99214478  0.28471024  0.18976504     0.12700
C423        C  0.00379702  0.36314316  0.38139881    -0.13400
C424        C  0.02912409  0.34801458  0.36066005     0.08800
C425        C  0.05586716  0.36559525  0.34456589    -0.13400
C426        C  0.05430275  0.39736247  0.34506424    -0.13400
C427        C  0.02608199  0.41242061  0.36185681     0.08800
C428        C  0.00223407  0.39494131  0.38190452    -0.13400
H429        H  0.98455594  0.35101500  0.39699649     0.12700
H430        H  0.07678938  0.35467592  0.32972288     0.12700
H431        H  0.07413707  0.41024674  0.33068832     0.12700
H432        H  0.98188751  0.40528028  0.39773665     0.12700
C433        C  0.11646351  0.01143116  0.36306336    -0.16500
C434        C  0.08264536  0.02155374  0.36288527    -0.31600
H435        H  0.12256156  0.98902232  0.35249665     0.12600
H436        H  0.07662365  0.04466400  0.37127428     0.13100
C437        C  0.09009696  0.24629382  0.36839315    -0.16500
C438        C  0.10527932  0.24689292  0.40009771    -0.31600
H439        H  0.10096375  0.23192772  0.34797144     0.12600
H440        H  0.09278867  0.25937896  0.42123581     0.13100
C441        C  0.94752697  0.02632439  0.39843502    -0.16500
C442        C  0.95947471  0.02511369  0.36563251    -0.31600
H443        H  0.96174226  0.01440879  0.41911902     0.12600
H444        H  0.94677003  0.03846632  0.34518616     0.13100
C445        C  0.93083478  0.25649665  0.36725803    -0.16500
C446        C  0.96435340  0.24558197  0.36649763    -0.31600
H447        H  0.92530736  0.27947451  0.35803536     0.12600
H448        H  0.96987221  0.22203188  0.37354484     0.13100
In449      In  0.85384763  0.21422037  0.91353966     1.36900
C450        C  0.85897058  0.15386488  0.92459644     0.77500
O451        O  0.87620454  0.24542238  0.95500361    -0.60900
O452        O  0.82128719  0.23371403  0.95810548    -0.51800
C453        C  0.90912645  0.24323825  0.88518888     0.70200
O454        O  0.91318969  0.22075460  0.90546914    -0.46700
C455        C  0.79815088  0.21698786  0.86969168     0.74900
O456        O  0.87166154  0.16724290  0.89851112    -0.58500
O457        O  0.79795548  0.22874546  0.89960472    -0.48600
O458        O  0.84583695  0.17152702  0.94700078    -0.55000
C459        C  0.84696984  0.24916006  0.97047410     0.85100
O460        O  0.87699979  0.25020525  0.87887662    -0.56900
O461        O  0.82726431  0.20474538  0.86146542    -0.60200
In462      In  0.84847465  0.05960630  0.92358187     1.36900
C463        C  0.79154762  0.05528325  0.88101058     0.77500
O464        O  0.84350788  0.01156832  0.94374558    -0.60900
O465        O  0.83495358  0.04798385  0.97937837    -0.51800
C466        C  0.91381143  0.03924376  0.91048562     0.70200
O467        O  0.88968481  0.04064343  0.88734792    -0.46700
C468        C  0.85732423  0.12034753  0.92646710     0.74900
O469        O  0.82289694  0.04978161  0.87118708    -0.58500
O470        O  0.84335829  0.10560390  0.95116050    -0.48600
O471        O  0.78894286  0.06156170  0.91292865    -0.55000
C472        C  0.83765490  0.01947231  0.97477607     0.85100
O473        O  0.90507858  0.04965378  0.93987178    -0.56900
O474        O  0.86792801  0.10402659  0.90168952    -0.60200
In475      In  0.20616999  0.20765744  0.90576958     1.36900
C476        C  0.26277671  0.21373906  0.86406675     0.77500
O477        O  0.20875201  0.25463651  0.92928933    -0.60900
O478        O  0.21003322  0.21701992  0.96405792    -0.51800
C479        C  0.14129907  0.22515057  0.88520709     0.70200
O480        O  0.16976160  0.23568386  0.87223575    -0.46700
C481        C  0.20607866  0.14674997  0.91036173     0.74900
O482        O  0.23153836  0.20954762  0.85262973    -0.58500
O483        O  0.22254888  0.16341074  0.93207926    -0.48600
O484        O  0.26506000  0.21581932  0.89672766    -0.55000
C485        C  0.20961332  0.24571591  0.96046153     0.85100
O486        O  0.14592324  0.20491764  0.90821351    -0.56900
O487        O  0.18883684  0.16119401  0.88745520    -0.60200
In488      In  0.21348983  0.05268965  0.90606502     1.36900
C489        C  0.20770407  0.11321023  0.91040824     0.77500
O490        O  0.21000209  0.04606988  0.96460289    -0.60900
O491        O  0.22388526  0.00821098  0.93305074    -0.51800
C492        C  0.15440747  0.02631637  0.88209410     0.70200
O493        O  0.15343556  0.05048027  0.90005762    -0.46700
C494        C  0.26970859  0.05087386  0.86416915     0.74900
O495        O  0.19051644  0.09732301  0.88853326    -0.58500
O496        O  0.27279999  0.04961098  0.89685720    -0.48600
O497        O  0.22713248  0.09809026  0.93114579    -0.55000
C498        C  0.21681752  0.01787192  0.96305631     0.85100
O499        O  0.18526745  0.01642455  0.87591773    -0.56900
O500        O  0.23809626  0.05252212  0.85303184    -0.60200
C501        C  0.02913321  0.32455583  0.85155723     0.86400
C502        C  0.06448826  0.31038511  0.86348823    -0.53800
C503        C  0.06735965  0.27997300  0.85674059     0.09400
C504        C  0.03393343  0.26598327  0.83890373     0.20300
C505        C  0.02592564  0.31622850  0.81283608    -0.54500
C506        C  0.02854810  0.28573002  0.80588655     0.09500
C507        C  0.00010248  0.30523478  0.86930495    -0.54000
C508        C  0.00207637  0.27470406  0.86219516     0.10000
H509        H  0.08619998  0.32364834  0.87500314     0.14600
H510        H  0.03585178  0.24109679  0.83367022     0.00300
H511        H  0.02292709  0.33337919  0.79257696     0.14900
H512        H  0.97915806  0.31422357  0.88562007     0.14700
C513        C  0.02164342  0.45740741  0.84763874     0.86400
C514        C  0.98900917  0.47480505  0.86160512    -0.53800
C515        C  0.98873959  0.50503544  0.85266503     0.09400
C516        C  0.02485461  0.01157614  0.84198888     0.20300
C517        C  0.02092755  0.46346141  0.80828087    -0.54500
C518        C  0.02102147  0.49356141  0.79937952     0.09500
C519        C  0.05396099  0.47544873  0.86142554    -0.54000
C520        C  0.05374573  0.50569669  0.85277071     0.10000
H521        H  0.96729509  0.46471419  0.87621569     0.14600
H522        H  0.02505103  0.03622239  0.83512129     0.00300
H523        H  0.02183089  0.44522535  0.78908031     0.14900
H524        H  0.07520953  0.46512928  0.87681927     0.14700
In525      In  0.70765507  0.21441668  0.80763232     1.36900
C526        C  0.69977039  0.15350246  0.80375112     0.77500
O527        O  0.68126326  0.23615364  0.76078110    -0.60900
O528        O  0.73627110  0.24506916  0.76865088    -0.51800
C529        C  0.65380711  0.24125789  0.83982677     0.70200
O530        O  0.64968510  0.21680994  0.82269833    -0.46700
C531        C  0.76653487  0.21680453  0.84695850     0.74900
O532        O  0.69058624  0.16921877  0.82960520    -0.58500
O533        O  0.76651053  0.20588765  0.81653775    -0.48600
O534        O  0.71140066  0.16899987  0.77846150    -0.55000
C535        C  0.70856807  0.25056061  0.75096683     0.85100
O536        O  0.68547542  0.25128546  0.84123526    -0.56900
O537        O  0.73684630  0.22696111  0.85685795    -0.60200
In538      In  0.70447604  0.05894382  0.81378581     1.36900
C539        C  0.76074280  0.05561048  0.85702104     0.77500
O540        O  0.67618966  0.03481826  0.76938109    -0.60900
O541        O  0.73245725  0.03041743  0.77290821    -0.51800
C542        C  0.65189705  0.02896677  0.84436297     0.70200
O543        O  0.68394815  0.02015868  0.84547071    -0.46700
C544        C  0.69904886  0.11982261  0.80487883     0.74900
O545        O  0.72911726  0.05846651  0.86748395    -0.58500
O546        O  0.71314633  0.10281592  0.78233695    -0.48600
O547        O  0.76378920  0.05405915  0.82435217    -0.55000
C548        C  0.70394506  0.02237647  0.75771582     0.85100
O549        O  0.64669493  0.05381576  0.82835780    -0.56900
O550        O  0.68615655  0.10562594  0.83033478    -0.60200
C551        C  0.52794000  0.31598594  0.87246602     0.86400
C552        C  0.49560278  0.29823640  0.85820122    -0.53800
C553        C  0.49569042  0.26786607  0.86638104     0.09400
C554        C  0.52835551  0.25784863  0.88806192     0.20300
C555        C  0.52866210  0.30935443  0.91168920    -0.54500
C556        C  0.52872224  0.27915718  0.92011120     0.09500
C557        C  0.56045410  0.29868289  0.85825875    -0.54000
C558        C  0.56086588  0.26834018  0.86667603     0.10000
H559        H  0.47393474  0.30900135  0.84380604     0.14600
H560        H  0.52861266  0.23310033  0.89444512     0.00300
H561        H  0.52818146  0.32734560  0.93121070     0.14900
H562        H  0.58140078  0.30873623  0.84252351     0.14700
C563        C  0.52809040  0.44871475  0.87728294     0.86400
C564        C  0.56135641  0.46634783  0.86489744    -0.53800
C565        C  0.56131583  0.49669014  0.87317050     0.09400
C566        C  0.52675061  0.00780170  0.89016469     0.20300
C567        C  0.52659707  0.45520684  0.91654211    -0.54500
C568        C  0.52621575  0.48550666  0.92495124     0.09500
C569        C  0.49645218  0.46622776  0.86167527    -0.54000
C570        C  0.49607495  0.49660115  0.87000039     0.10000
H571        H  0.58290757  0.45657897  0.85012863     0.14600
H572        H  0.52663332  0.03252049  0.89667949     0.00300
H573        H  0.52621797  0.43718697  0.93600514     0.14900
H574        H  0.47624738  0.45539818  0.84530785     0.14700
In575      In  0.35190825  0.21136138  0.80090812     1.36900
C576        C  0.29413240  0.21466492  0.84131112     0.77500
O577        O  0.34198612  0.25885431  0.78090081    -0.60900
O578        O  0.34583243  0.22257817  0.74410153    -0.51800
C579        C  0.41617340  0.23320662  0.81748308     0.70200
O580        O  0.39216508  0.22888213  0.83994541    -0.46700
C581        C  0.35976269  0.15087733  0.79518375     0.74900
O582        O  0.32531715  0.21941551  0.85267123    -0.58500
O583        O  0.34347517  0.16649191  0.77260829    -0.48600
O584        O  0.29222465  0.20951471  0.80905923    -0.55000
C585        C  0.34305751  0.25097520  0.74926885     0.85100
O586        O  0.40784014  0.22519770  0.78695306    -0.56900
O587        O  0.37325907  0.16622823  0.81968859    -0.60200
In588      In  0.35624655  0.05647261  0.79865810     1.36900
C589        C  0.36092690  0.11738955  0.79451819     0.77500
O590        O  0.34631277  0.00912374  0.77713589    -0.60900
O591        O  0.34792892  0.04646595  0.74176623    -0.51800
C592        C  0.42012564  0.03515495  0.81566199     0.70200
O593        O  0.41342419  0.04582780  0.78579005    -0.45100
C594        C  0.30036037  0.05149323  0.84080768     0.74900
O595        O  0.37635968  0.10211896  0.81787638    -0.58500
O596        O  0.29712908  0.05591039  0.80853673    -0.48600
O597        O  0.34483485  0.10154346  0.77192238    -0.55000
C598        C  0.34479521  0.01795984  0.74587212     0.85100
O599        O  0.39469345  0.03659152  0.83699827    -0.56900
O600        O  0.33202425  0.04856201  0.85143562    -0.60200
In601      In  0.84631225  0.30880548  0.55585440     1.36900
C602        C  0.85280726  0.36975864  0.55057494     0.77500
O603        O  0.87170796  0.28774774  0.50834010    -0.60900
O604        O  0.81702054  0.27823139  0.51704303    -0.51800
C605        C  0.90059758  0.27973744  0.58489107     0.70200
O606        O  0.90461778  0.30510773  0.56967248    -0.46700
C607        C  0.79056763  0.30575973  0.59859885     0.74900
O608        O  0.86749567  0.35413542  0.57400548    -0.58500
O609        O  0.78715700  0.30846576  0.56605466    -0.48600
O610        O  0.83609570  0.35417738  0.52801665    -0.55000
C611        C  0.84369132  0.26996657  0.00043863     0.85100
O612        O  0.86883538  0.26988482  0.58594214    -0.56900
O613        O  0.82238966  0.30410312  0.60932287    -0.60200
In614      In  0.84862932  0.46389192  0.56086812     1.36900
C615        C  0.79109722  0.46504451  0.60173584     0.77500
O616        O  0.82529855  0.00770862  0.53365365    -0.60900
O617        O  0.84644032  0.46943432  0.99837473    -0.51800
C618        C  0.90743632  0.48908419  0.58742428     0.70200
O619        O  0.87654583  0.49438104  0.59872651    -0.46700
C620        C  0.85339368  0.40339110  0.55170272     0.74900
O621        O  0.82194273  0.45928653  0.61303990    -0.58500
O622        O  0.83461300  0.42001249  0.53203196    -0.48600
O623        O  0.78946495  0.47046551  0.56952185    -0.55000
C624        C  0.84487902  0.50171361  0.50600349     0.85100
O625        O  0.90882745  0.46938962  0.56334624    -0.56900
O626        O  0.87113760  0.41784821  0.57442739    -0.60200
In627      In  0.21215221  0.30307504  0.56096955     1.36900
C628        C  0.26892270  0.30286041  0.60312857     0.77500
O629        O  0.22794588  0.26022783  0.53278611    -0.60900
O630        O  0.19982146  0.29507514  0.98531701    -0.51800
C631        C  0.15394646  0.27454577  0.58429828     0.70200
O632        O  0.18520676  0.26485274  0.58901633    -0.46700
C633        C  0.20666568  0.36381086  0.55583161     0.74900
O634        O  0.23733822  0.30271187  0.61418365    -0.58500
O635        O  0.22305440  0.34797093  0.53359725    -0.48600
O636        O  0.27170644  0.30221822  0.57043045    -0.55000
C637        C  0.21727517  0.26919757  0.50337263     0.85100
O638        O  0.15202332  0.29956939  0.56802685    -0.56900
O639        O  0.19208533  0.34854120  0.57976810    -0.60200
In640      In  0.20565864  0.45872764  0.55638262     1.36900
C641        C  0.20551254  0.39744582  0.55491675     0.77500
O642        O  0.21172017  0.50518588  0.53084972    -0.60900
O643        O  0.20843751  0.46631856  0.49809639    -0.51800
C644        C  0.14045933  0.47581792  0.57493801     0.70200
O645        O  0.14554678  0.45608218  0.55154818    -0.46700
C646        C  0.26167572  0.46656023  0.59902904     0.74900
O647        O  0.19032840  0.41279185  0.57824115    -0.58500
O648        O  0.26482013  0.46371465  0.56652657    -0.48600
O649        O  0.22030997  0.41333319  0.53161278    -0.55000
C650        C  0.20132142  0.49997319  0.99155938     0.85100
O651        O  0.17731115  0.99943832  0.58400461    -0.56900
O652        O  0.22994230  0.46642576  0.60967439    -0.60200
C653        C  0.02117786  0.06821249  0.62013943     0.86400
C654        C  0.98880193  0.05061400  0.60512786    -0.53800
C655        C  0.98868793  0.02008731  0.61271688     0.09400
C656        C  0.02129951  0.00969863  0.63416401     0.20300
C657        C  0.02076545  0.06080643  0.65915380    -0.54500
C658        C  0.02117300  0.03037018  0.66678242     0.09500
C659        C  0.05371034  0.05119001  0.60590328    -0.54000
C660        C  0.05400564  0.02059870  0.61333055     0.10000
H661        H  0.96776661  0.06061729  0.58948246     0.14600
H662        H  0.03749549  0.48959808  0.62898011     0.00300
H663        H  0.02005528  0.07841802  0.67910711     0.14900
H664        H  0.07441247  0.06249619  0.59087817     0.14700
C665        C  0.02451194  0.20195684  0.61856796     0.86400
C666        C  0.05730659  0.21792327  0.60308920    -0.53800
C667        C  0.05913978  0.24863451  0.60974013     0.09400
C668        C  0.02733982  0.26072689  0.63100249     0.20300
C669        C  0.02548430  0.21019182  0.65742751    -0.54500
C670        C  0.02720724  0.24075293  0.66413205     0.09500
C671        C  0.99249886  0.21994117  0.60391045    -0.54000
C672        C  0.99367008  0.25057782  0.61077310     0.10000
H673        H  0.07731971  0.20576080  0.58819659     0.14600
H674        H  0.02866908  0.28567088  0.63629426     0.00300
H675        H  0.02452785  0.19312382  0.67797214     0.14900
H676        H  0.97069290  0.21004005  0.58909760     0.14700
In677      In  0.34929574  0.46758519  0.66507567     1.36900
C678        C  0.35719630  0.40712987  0.67330332     0.77500
O679        O  0.37758756  0.48979051  0.71074991    -0.60900
O680        O  0.32173002  0.49642544  0.70560240    -0.51800
C681        C  0.40114757  0.49742461  0.63377026     0.70200
O682        O  0.40623353  0.47252480  0.64960279    -0.46700
C683        C  0.29257738  0.46842506  0.62263371     0.74900
O684        O  0.37033247  0.42198172  0.64848679    -0.58500
O685        O  0.28973405  0.46947019  0.65533849    -0.48600
O686        O  0.34110037  0.42327465  0.69537800    -0.55000
C687        C  0.35004231  0.50274760  0.72210668     0.85100
O688        O  0.36514649  0.99400958  0.62218574    -0.56900
O689        O  0.32421387  0.46789032  0.61172884    -0.60200
In690      In  0.35561991  0.31250570  0.66928110     1.36900
C691        C  0.29979734  0.30497626  0.62658881     0.77500
O692        O  0.34469515  0.26522705  0.68916471    -0.60900
O693        O  0.34854913  0.30156216  0.72601770    -0.51800
C694        C  0.42014295  0.29120595  0.65395453     0.70200
O695        O  0.39660429  0.29646268  0.63106893    -0.46700
C696        C  0.35878977  0.37359463  0.67438351     0.74900
O697        O  0.33155657  0.30388428  0.61609455    -0.58500
O698        O  0.34189107  0.35744983  0.69591080    -0.48600
O699        O  0.29657505  0.30912332  0.65885263    -0.55000
C700        C  0.34452075  0.27322742  0.72077200     0.85100
O701        O  0.41152130  0.29853145  0.68454226    -0.56900
O702        O  0.37558069  0.35854364  0.65196723    -0.60200
C703        C  0.52271285  0.20160497  0.59740118     0.86400
C704        C  0.49239407  0.22098772  0.61295248    -0.53800
C705        C  0.49445322  0.25125306  0.60434115     0.09400
C706        C  0.52654980  0.25951780  0.58136979     0.20300
C707        C  0.52106394  0.20807805  0.55812243    -0.54500
C708        C  0.52311336  0.23821847  0.54949223     0.09500
C709        C  0.55701087  0.21739618  0.61026999    -0.54000
C710        C  0.55926065  0.24766862  0.60178897     0.10000
H711        H  0.47068487  0.21220951  0.62861777     0.14600
H712        H  0.52797224  0.28421073  0.57481632     0.00300
H713        H  0.51912990  0.19002672  0.53873643     0.14900
H714        H  0.57717197  0.20563518  0.62565192     0.14700
C715        C  0.52060038  0.06820084  0.59975732     0.86400
C716        C  0.55285458  0.05249680  0.61677692    -0.53800
C717        C  0.55455763  0.02177515  0.61060994     0.09400
C718        C  0.52351819  0.00937290  0.58814829     0.20300
C719        C  0.52258268  0.05962298  0.56109041    -0.54500
C720        C  0.52433019  0.02902102  0.55470654     0.09500
C721        C  0.48801425  0.05028215  0.61331995    -0.54000
C722        C  0.48959713  0.01953870  0.60717887     0.10000
H723        H  0.57238673  0.06473527  0.63262325     0.14600
H724        H  0.52299060  0.48582919  0.57513115     0.00300
H725        H  0.52201904  0.07657172  0.54040405     0.14900
H726        H  0.46574727  0.06020369  0.62709427     0.14700
In727      In  0.70372420  0.30699364  0.66426988     1.36900
C728        C  0.69621379  0.36804018  0.67052557     0.77500
O729        O  0.67908001  0.28439339  0.71114569    -0.60900
O730        O  0.73490146  0.27927931  0.70407543    -0.51800
C731        C  0.65104989  0.27537761  0.63444443     0.70200
O732        O  0.64596046  0.30090659  0.64892728    -0.46700
C733        C  0.75990389  0.30527474  0.62210829     0.74900
O734        O  0.68701374  0.35299726  0.64405878    -0.58500
O735        O  0.76312283  0.30574146  0.65483507    -0.48600
O736        O  0.70766680  0.35180192  0.69532873    -0.55000
C737        C  0.70764958  0.27205604  0.72145788     0.85100
O738        O  0.68300183  0.26630137  0.63495386    -0.56900
O739        O  0.72814964  0.30501122  0.61105235    -0.60200
In740      In  0.70183036  0.46294142  0.66438423     1.36900
C741        C  0.75960962  0.46493129  0.62422761     0.77500
O742        O  0.72985529  0.99273472  0.71157011    -0.60900
O743        O  0.67641706  0.48360158  0.71234516    -0.51800
C744        C  0.64937419  0.49165311  0.63129118     0.70200
O745        O  0.68120400  0.50122790  0.63188604    -0.46700
C746        C  0.69570918  0.40179323  0.67053277     0.74900
O747        O  0.72849419  0.46902081  0.61251901    -0.58500
O748        O  0.70729880  0.41828767  0.69513966    -0.48600
O749        O  0.76142060  0.46029887  0.65664150    -0.55000
C750        C  0.70345682  0.49921408  0.72106906     0.85100
O751        O  0.64406967  0.46695052  0.64755627    -0.56900
O752        O  0.68549285  0.41661455  0.64427068    -0.60200
C753        C  0.58334065  0.00211544  0.62460814    -0.16500
C754        C  0.62102471  0.50926834  0.61402452    -0.31600
H755        H  0.57705281  0.97846003  0.63067916     0.12600
H756        H  0.62853004  0.53165970  0.60419812     0.13100
C757        C  0.62215377  0.25674674  0.61911043    -0.16500
C758        C  0.58909032  0.26768183  0.61345987    -0.31600
H759        H  0.62834628  0.23319939  0.61265566     0.12600
H760        H  0.58360152  0.29175471  0.61762915     0.13100
C761        C  0.49394701  0.15149597  0.61905273    -0.13400
C762        C  0.52276635  0.16738619  0.60396911     0.08800
C763        C  0.55161826  0.15045924  0.59098909    -0.13400
C764        C  0.55099353  0.11873279  0.59137759    -0.13400
C765        C  0.52137129  0.10270014  0.60449402     0.08800
C766        C  0.49322594  0.11953954  0.61926282    -0.13400
H767        H  0.47101602  0.16318823  0.62934449     0.12700
H768        H  0.57418261  0.16191032  0.57906220     0.12700
H769        H  0.57319608  0.10654532  0.57996298     0.12700
H770        H  0.46989946  0.10863693  0.63003554     0.12700
C771        C  0.45382663  0.27544781  0.64611046    -0.16500
C772        C  0.46618927  0.27324659  0.61346860    -0.31600
H773        H  0.46729923  0.26342309  0.66717924     0.12600
H774        H  0.45430964  0.28667193  0.59262570     0.13100
C775        C  0.42667305  0.00577983  0.61467184    -0.16500
C776        C  0.46118168  0.99818961  0.61844018    -0.31600
H777        H  0.42428802  0.53802580  0.60941330     0.12600
H778        H  0.46867245  0.97642771  0.62989191     0.13100
C779        C  0.99589743  0.11929361  0.59739119    -0.13400
C780        C  0.02310598  0.10260682  0.61418991     0.08800
C781        C  0.05233822  0.11883002  0.62835428    -0.13400
C782        C  0.05319225  0.15066922  0.62787092    -0.13400
C783        C  0.02474954  0.16742543  0.61338285     0.08800
C784        C  0.99672113  0.15117925  0.59696355    -0.13400
H785        H  0.97306264  0.10840406  0.58539966     0.12700
H786        H  0.07395418  0.10676261  0.64120021     0.12700
H787        H  0.07545718  0.16236481  0.64033009     0.12700
H788        H  0.97450310  0.16242631  0.58454606     0.12700
C789        C  0.08279499  0.99973726  0.60185871    -0.16500
C790        C  0.11660168  0.00962844  0.59801866    -0.31600
H791        H  0.07608137  0.97595939  0.59683189     0.12600
H792        H  0.08115226  0.47323485  0.57724638     0.13100
C793        C  0.12281102  0.25684492  0.59627675    -0.16500
C794        C  0.08955064  0.26818852  0.59849553    -0.31600
H795        H  0.12790318  0.23344111  0.60424350     0.12600
H796        H  0.08477523  0.29222961  0.59332869     0.13100
C797        C  0.93838736  0.50672803  0.60016787    -0.16500
C798        C  0.95926803  0.99931567  0.60162891    -0.31600
H799        H  0.93254607  0.52706615  0.61537398     0.12600
H800        H  0.96538789  0.97584187  0.59478525     0.13100
C801        C  0.96445684  0.27158909  0.60026658    -0.16500
C802        C  0.93032344  0.26173124  0.59910647    -0.31600
H803        H  0.97103054  0.29506734  0.59363559     0.12600
H804        H  0.92371266  0.23888423  0.60811217     0.13100
C805        C  0.50716470  0.02430556  0.96681213    -0.13400
C806        C  0.52475396  0.99703958  0.95860489     0.08800
C807        C  0.54125092  0.98034153  0.98561925    -0.13400
C808        C  0.50542235  0.99114478  0.50904307    -0.13400
C809        C  0.52562053  0.01691200  0.51859090     0.08800
C810        C  0.54509397  0.03255319  0.49280505    -0.13400
H811        H  0.49339091  0.03729212  0.94686698     0.12700
H812        H  0.55544820  0.95940670  0.98011206     0.12700
H813        H  0.48971346  0.97900537  0.52824261     0.12700
H814        H  0.56131873  0.05227863  0.49954341     0.12700
C815        C  0.46545970  0.01797155  0.85747734    -0.16500
C816        C  0.45419067  0.02040155  0.82437039    -0.31600
H817        H  0.47449298  0.54142840  0.85343470     0.12600
H818        H  0.46932444  0.00990426  0.80348524     0.13100
C819        C  0.50760414  0.24288623  0.96578037    -0.13400
C820        C  0.52771984  0.26873003  0.95682053     0.08800
C821        C  0.54503640  0.28558222  0.98338057    -0.13400
C822        C  0.54358757  0.27371402  0.50245054    -0.13400
C823        C  0.52244969  0.24880918  0.51274719     0.08800
C824        C  0.50130950  0.23363611  0.48757267    -0.13400
H825        H  0.49342699  0.22985198  0.94602431     0.12700
H826        H  0.56121581  0.30540275  0.97716615     0.12700
H827        H  0.56069170  0.28540144  0.52108639     0.12700
H828        H  0.48436454  0.21457357  0.49482563     0.12700
C829        C  0.46554568  0.24737001  0.85721696    -0.16500
C830        C  0.45036919  0.24837522  0.82546797    -0.31600
H831        H  0.45514008  0.23208641  0.87705525     0.12600
H832        H  0.46268303  0.26185541  0.80495901     0.13100
C833        C  0.55281393  0.36706041  0.84995757    -0.13400
C834        C  0.52562840  0.35015792  0.86620069     0.08800
C835        C  0.49676308  0.36609232  0.88085615    -0.13400
C836        C  0.49714861  0.39785769  0.88259808    -0.13400
C837        C  0.52623597  0.41466016  0.86960828     0.08800
C838        C  0.55318895  0.39884842  0.85157967    -0.13400
H839        H  0.57511564  0.35627633  0.83699939     0.12700
H840        H  0.47500360  0.35378988  0.89303530     0.12700
H841        H  0.47545643  0.40933861  0.89584273     0.12700
H842        H  0.57524980  0.41019947  0.83950476     0.12700
C843        C  0.62307480  0.01030929  0.85906968    -0.16500
C844        C  0.58895043  0.01955876  0.86017240    -0.31600
H845        H  0.63009274  0.98753272  0.86797146     0.12600
H846        H  0.58340190  0.54142166  0.85645426     0.13100
C847        C  0.62418727  0.25820230  0.85553274    -0.16500
C848        C  0.59027940  0.24788146  0.85601786    -0.31600
H849        H  0.63037627  0.28083126  0.86564400     0.12600
H850        H  0.58395734  0.22463465  0.84813030     0.13100
C851        C  0.01040318  0.49598460  0.70100301    -0.13400
C852        C  0.02199512  0.01920813  0.70326518     0.08800
C853        C  0.04138693  0.03543200  0.72885803    -0.13400
C854        C  0.04112656  0.02600293  0.76358055    -0.13400
C855        C  0.02165433  0.00004308  0.77350755     0.08800
C856        C  0.00697967  0.48681737  0.73571019    -0.13400
H857        H  0.99651492  0.48328275  0.68075654     0.12700
H858        H  0.05711602  0.05534452  0.72198009     0.12700
H859        H  0.05681286  0.03872519  0.78250174     0.12700
H860        H  0.99075398  0.46692201  0.74148431     0.12700
C861        C  0.00678942  0.28819563  0.74383302    -0.13400
C862        C  0.02757356  0.27370979  0.76970282     0.08800
C863        C  0.04859529  0.24857250  0.76040471    -0.13400
C864        C  0.04888166  0.23817286  0.72596707    -0.13400
C865        C  0.02823611  0.25277750  0.70017417     0.08800
C866        C  0.00732122  0.27794056  0.70935236    -0.13400
H867        H  0.98978819  0.30731071  0.75026863     0.12700
H868        H  0.06541618  0.23733720  0.77952050     0.12700
H869        H  0.06553642  0.21885151  0.71938786     0.12700
H870        H  0.99070854  0.28918984  0.69005169     0.12700
C871        C  0.00022300  0.37445979  0.87308245    -0.13400
C872        C  0.02834128  0.35896475  0.85648862     0.08800
C873        C  0.05573422  0.37631766  0.84116288    -0.13400
C874        C  0.05409289  0.40798500  0.84056036    -0.13400
C875        C  0.02471484  0.42343358  0.85476408     0.08800
C876        C  0.99846921  0.40632244  0.87227269    -0.13400
H877        H  0.97850784  0.36256049  0.88550850     0.12700
H878        H  0.07782256  0.36520750  0.82822399     0.12700
H879        H  0.07499942  0.42050006  0.82722566     0.12700
H880        H  0.97573966  0.41692420  0.88435322     0.12700
C881        C  0.12259601  0.00947771  0.87032633    -0.16500
C882        C  0.08936547  0.02100140  0.87042443    -0.31600
H883        H  0.12690763  0.98617366  0.86156741     0.12600
H884        H  0.08491612  0.04494423  0.87635426     0.13100
C885        C  0.10210151  0.26460508  0.86181800    -0.16500
C886        C  0.10550345  0.23655984  0.87536468    -0.31600
H887        H  0.12598695  0.27841365  0.85780388     0.12600
H888        H  0.08191939  0.22344457  0.88245700     0.13100
C889        C  0.94850593  0.02446114  0.90454566    -0.16500
C890        C  0.96310951  0.02298512  0.87277837    -0.31600
H891        H  0.96135612  0.01306724  0.92642566     0.12600
H892        H  0.95189166  0.03618026  0.85139740     0.13100
C893        C  0.93895439  0.26155588  0.87139115    -0.16500
C894        C  0.97352625  0.25308551  0.87307112    -0.31600
H895        H  0.93204394  0.28351304  0.86001393     0.12600
H896        H  0.98079474  0.23034278  0.88182531     0.13100
In897      In  0.84129684  0.71594658  0.41627390     1.36900
C898        C  0.84849035  0.65554207  0.42357524     0.77500
O899        O  0.82952750  0.76162293  0.44095157    -0.60900
O900        O  0.84247382  0.72461859  0.47426127    -0.51800
C901        C  0.89960162  0.74270673  0.39131768     0.70200
O902        O  0.90153694  0.72166913  0.41379154    -0.46700
C903        C  0.78433078  0.71562757  0.37418315     0.74900
O904        O  0.86559832  0.67095621  0.40146949    -0.58500
O905        O  0.78176637  0.71838493  0.40674850    -0.48600
O906        O  0.82872367  0.67111424  0.44324057    -0.55000
C907        C  0.83496083  0.75260935  0.47164106     0.85100
O908        O  0.86837960  0.74921870  0.38148415    -0.56900
O909        O  0.81578645  0.71308230  0.36323244    -0.60200
In910      In  0.84963119  0.56090026  0.42161172     1.36900
C911        C  0.79339541  0.55476537  0.37875470     0.77500
O912        O  0.84264505  0.51386304  0.44503550    -0.60900
O913        O  0.84850832  0.55138524  0.47954359    -0.51800
C914        C  0.91446637  0.54370855  0.40209369     0.70200
O915        O  0.88626917  0.53570631  0.38618059    -0.46700
C916        C  0.85019994  0.62199419  0.42466430     0.74900
O917        O  0.82518307  0.55388780  0.36832141    -0.58500
O918        O  0.83309997  0.60585270  0.44616093    -0.48600
O919        O  0.79018613  0.55767602  0.41127362    -0.55000
C920        C  0.84500446  0.52284695  0.47614998     0.85100
O921        O  0.90959563  0.56113840  0.42782055    -0.56900
O922        O  0.86784556  0.60697200  0.40279245    -0.60200
In923      In  0.19710076  0.70530940  0.41284880     1.36900
C924        C  0.25189885  0.71125746  0.36927461     0.77500
O925        O  0.19992264  0.75325096  0.43395261    -0.60900
O926        O  0.20413662  0.71665314  0.47002202    -0.51800
C927        C  0.13184910  0.72291161  0.39441520     0.70200
O928        O  0.15953995  0.73035388  0.37765404    -0.46700
C929        C  0.19749694  0.64420079  0.41852465     0.74900
O930        O  0.22044753  0.70591085  0.35906054    -0.58500
O931        O  0.21692502  0.66111833  0.43749758    -0.48600
O932        O  0.25532623  0.71459244  0.40170825    -0.55000
C933        C  0.20307650  0.74523003  0.46530483     0.85100
O934        O  0.13738805  0.70552037  0.42014564    -0.56900
O935        O  0.17688397  0.65850031  0.39832927    -0.60200
In936      In  0.20604224  0.54985010  0.41166924     1.36900
C937        C  0.19962197  0.61057148  0.41815705     0.77500
O938        O  0.20554450  0.54334505  0.47045233    -0.60900
O939        O  0.21564594  0.50480002  0.43888937    -0.51800
C940        C  0.14775236  0.52308776  0.38588731     0.70200
O941        O  0.14595250  0.54530205  0.40683937    -0.46700
C942        C  0.26048033  0.54876628  0.36717318     0.74900
O943        O  0.17877690  0.59441326  0.39984954    -0.58500
O944        O  0.26493937  0.54553899  0.39955389    -0.48600
O945        O  0.22318507  0.59563400  0.43446941    -0.55000
C946        C  0.21118360  0.51497767  0.46917786     0.85100
O947        O  0.17899136  0.51525855  0.37785946    -0.56900
O948        O  0.22853230  0.55231045  0.35773810    -0.60200
C949        C  0.02084371  0.82149579  0.35636787     0.86400
C950        C  0.05630771  0.80722594  0.36799195    -0.53800
C951        C  0.05834765  0.77653617  0.36257748     0.09400
C952        C  0.02427596  0.76244145  0.34625939     0.20300
C953        C  0.01632037  0.81181392  0.31819031    -0.54500
C954        C  0.01829590  0.78108237  0.31247313     0.09500
C955        C  0.99201779  0.80321371  0.37577246    -0.54000
C956        C  0.99346246  0.77239048  0.37014402     0.10000
H957        H  0.07860755  0.82053437  0.37828306     0.14600
H958        H  0.02563514  0.73736211  0.34216871     0.00300
H959        H  0.01329884  0.82834795  0.29728212     0.14900
H960        H  0.97142948  0.81308693  0.39187983     0.14700
C961        C  0.01728556  0.95482396  0.34766201     0.86400
C962        C  0.98670249  0.97345180  0.36380737    -0.53800
C963        C  0.98801704  0.00383481  0.35575562     0.09400
C964        C  0.01928698  0.50540091  0.34470297     0.20300
C965        C  0.01483369  0.96177625  0.30849757    -0.54500
C966        C  0.01627980  0.99213034  0.30045630     0.09500
C967        C  0.05144425  0.97108572  0.36013239    -0.54000
C968        C  0.05272012  0.00146877  0.35214289     0.10000
H969        H  0.96508534  0.96411043  0.37915660     0.14600
H970        H  0.01790978  0.53037678  0.33980099     0.00300
H971        H  0.01347853  0.94395425  0.28880345     0.14900
H972        H  0.07250317  0.95954728  0.37458187     0.14700
In973      In  0.69711883  0.71079748  0.30825688     1.36900
C974        C  0.69516594  0.64942004  0.30375021     0.77500
O975        O  0.67198333  0.73001234  0.25909052    -0.60900
O976        O  0.72508304  0.74333202  0.27119372    -0.51800
C977        C  0.64174945  0.73958536  0.33533902     0.70200
O978        O  0.63812877  0.71455068  0.31920392    -0.46700
C979        C  0.75328959  0.71491073  0.35077661     0.74900
O980        O  0.68038919  0.66431378  0.32764532    -0.58500
O981        O  0.75628044  0.71252792  0.31817747    -0.48600
O982        O  0.70910029  0.66585678  0.28043665    -0.55000
C983        C  0.69836511  0.74667987  0.25143587     0.85100
O984        O  0.67356817  0.74884484  0.33882974    -0.56900
O985        O  0.72159622  0.71611619  0.36163920    -0.60200
In986      In  0.70595703  0.55510214  0.31174147     1.36900
C987        C  0.76261220  0.55375847  0.35484020     0.77500
O988        O  0.70748061  0.50865628  0.28594112    -0.60900
O989        O  0.71019926  0.54737818  0.25318658    -0.51800
C990        C  0.64757588  0.52896340  0.33642553     0.70200
O991        O  0.67867644  0.52146563  0.34568623    -0.46700
C992        C  0.69747263  0.61574336  0.30468103     0.74900
O993        O  0.73112636  0.55729235  0.36515440    -0.58500
O994        O  0.71657361  0.60032052  0.28422660    -0.48600
O995        O  0.76545010  0.55038485  0.32235073    -0.55000
C996        C  0.70879500  0.51861885  0.25528122     0.85100
O997        O  0.64589092  0.55096820  0.31510857    -0.56900
O998        O  0.68179133  0.60007345  0.32755629    -0.60200
C999        C  0.51657716  0.81770300  0.36193639     0.86400
C1000       C  0.48350761  0.80002583  0.34902417    -0.53800
C1001       C  0.48309939  0.76994748  0.35863498     0.09400
C1002       C  0.51598881  0.76012090  0.37998973     0.20300
C1003       C  0.51789561  0.81228848  0.40147560    -0.54500
C1004       C  0.51734628  0.78237045  0.41107875     0.09500
C1005       C  0.54840653  0.79937198  0.34786407    -0.54000
C1006       C  0.54832666  0.76931600  0.35765084     0.10000
H1007       H  0.46169369  0.81067997  0.33474760     0.14600
H1008       H  0.51583896  0.73560302  0.38747248     0.00300
H1009       H  0.51840301  0.83081934  0.42033929     0.14900
H1010       H  0.56930099  0.80857253  0.33155994     0.14700
C1011       C  0.52048905  0.95045796  0.36359760     0.86400
C1012       C  0.55285387  0.96803183  0.34898327    -0.53800
C1013       C  0.55334814  0.99834864  0.35735033     0.09400
C1014       C  0.52081429  0.50796614  0.37363315     0.20300
C1015       C  0.52182285  0.95686266  0.40291768    -0.54500
C1016       C  0.52217812  0.98711640  0.41153005     0.09500
C1017       C  0.48791983  0.96811072  0.35021885    -0.54000
C1018       C  0.48805520  0.99842081  0.35881434     0.10000
H1019       H  0.57379947  0.95822564  0.33327611     0.14600
H1020       H  0.52022658  0.53271129  0.38005385     0.00300
H1021       H  0.52273287  0.93878086  0.42229833     0.14900
H1022       H  0.46660357  0.95737146  0.33516664     0.14700
In1023     In  0.33734830  0.70978910  0.30190448     1.36900
C1024       C  0.28217868  0.71220296  0.34532823     0.77500
O1025       O  0.32462601  0.75719225  0.28282286    -0.60900
O1026       O  0.32798283  0.72115732  0.24568893    -0.51800
C1027       C  0.40163459  0.73318552  0.31486564     0.70200
O1028       O  0.37925933  0.72813049  0.33872629    -0.46700
C1029       C  0.34525876  0.64935250  0.29492261     0.74900
O1030       O  0.31382990  0.71729409  0.35521078    -0.58500
O1031       O  0.32593539  0.66489925  0.27470612    -0.48600
O1032       O  0.27864791  0.70691248  0.31325732    -0.55000
C1033       C  0.32443090  0.74943803  0.25112533     0.85100
O1034       O  0.39182954  0.72485376  0.28484392    -0.56900
O1035       O  0.36181019  0.66477841  0.31756589    -0.60200
In1036     In  0.34328091  0.55482863  0.29703777     1.36900
C1037       C  0.34663229  0.61584705  0.29376703     0.77500
O1038       O  0.33383311  0.50741771  0.27561822    -0.60900
O1039       O  0.33153060  0.54502140  0.24061665    -0.51800
C1040       C  0.40887553  0.53477695  0.30881968     0.70200
O1041       O  0.40005900  0.54724755  0.28040685    -0.45100
C1042       C  0.28994555  0.54936673  0.34228139     0.74900
O1043       O  0.36466198  0.60045907  0.31519825    -0.58500
O1044       O  0.28486942  0.55258586  0.31003271    -0.48600
O1045       O  0.32838186  0.60009069  0.27265043    -0.55000
C1046       C  0.32996553  0.51640330  0.24460270     0.85100
O1047       O  0.38453423  0.53358004  0.33142370    -0.56900
O1048       O  0.32225682  0.54765149  0.35137651    -0.60200
In1049     In  0.84207048  0.80425246  0.05978788     1.36900
C1050       C  0.84838212  0.86519715  0.05212269     0.77500
O1051       O  0.87079457  0.77933404  0.01668801    -0.60900
O1052       O  0.81430635  0.77761097  0.01628356    -0.51800
C1053       C  0.89554702  0.77564586  0.09151260     0.70200
O1054       O  0.89989801  0.80083829  0.07596119    -0.46700
C1055       C  0.78427061  0.80093898  0.10057876     0.74900
O1056       O  0.85937542  0.85069500  0.07823812    -0.58500
O1057       O  0.78215884  0.80065931  0.06779286    -0.48600
O1058       O  0.83567725  0.84848520  0.02826362    -0.55000
C1059       C  0.83409065  0.77319976  0.50186268     0.85100
O1060       O  0.86377524  0.76568071  0.09159728    -0.56900
O1061       O  0.81571088  0.80193803  0.11240115    -0.60200
In1062     In  0.84295544  0.95953766  0.05824555     1.36900
C1063       C  0.78723208  0.95896325  0.10107142     0.77500
O1064       O  0.82741370  0.50504220  0.03036523    -0.60900
O1065       O  0.84208204  0.97083082  0.50222829    -0.51800
C1066       C  0.90086996  0.98696652  0.08405189     0.70200
O1067       O  0.86951318  0.99387797  0.09249778    -0.46700
C1068       C  0.84852753  0.89886155  0.05162175     0.74900
O1069       O  0.81908091  0.96023183  0.11169355    -0.58500
O1070       O  0.83130223  0.91475769  0.02983007    -0.48600
O1071       O  0.78359600  0.95797524  0.06835480    -0.55000
C1072       C  0.83687382  0.99733034  0.00361099     0.85100
O1073       O  0.90319401  0.96488619  0.06295680    -0.56900
O1074       O  0.86421067  0.91411066  0.07506298    -0.60200
In1075     In  0.19946782  0.80452358  0.05318505     1.36900
C1076       C  0.25332163  0.80176282  0.09966680     0.77500
O1077       O  0.21143182  0.75794447  0.03084627    -0.60900
O1078       O  0.19124522  0.79398296  0.49162954    -0.51800
C1079       C  0.13575285  0.78042517  0.06894420     0.70200
O1080       O  0.15892538  0.78679463  0.09190200    -0.46700
C1081       C  0.19475206  0.86494882  0.04252658     0.74900
O1082       O  0.22138601  0.80640166  0.10812370    -0.58500
O1083       O  0.21754243  0.84857821  0.02758036    -0.48600
O1084       O  0.25773507  0.79709088  0.06761634    -0.55000
C1085       C  0.21179086  0.76749912  0.99974852     0.85100
O1086       O  0.14466294  0.78723708  0.03833330    -0.56900
O1087       O  0.17310555  0.85032652  0.06117152    -0.60200
In1088     In  0.20161683  0.95934553  0.04586807     1.36900
C1089       C  0.19520764  0.89846259  0.04089896     0.77500
O1090       O  0.21242356  0.00640221  0.02409215    -0.60900
O1091       O  0.21115746  0.96859065  0.98923168    -0.51800
C1092       C  0.13787214  0.98211683  0.05928247     0.70200
O1093       O  0.14689239  0.97398849  0.02906843    -0.46700
C1094       C  0.25514918  0.96500860  0.09167078     0.74900
O1095       O  0.17439306  0.91463081  0.05856994    -0.58500
O1096       O  0.26012720  0.96105823  0.05959725    -0.48600
O1097       O  0.21799956  0.91342224  0.02389715    -0.55000
C1098       C  0.19935307  0.99741033  0.49688610     0.85100
O1099       O  0.15238682  0.47765401  0.08378063    -0.56900
O1100       O  0.22287473  0.96709838  0.10032456    -0.60200
C1101       C  0.02031708  0.56594012  0.12127416     0.86400
C1102       C  0.98758085  0.54807467  0.10730167    -0.53800
C1103       C  0.98788602  0.51758945  0.11540623     0.09400
C1104       C  0.02077115  0.50775895  0.13680132     0.20300
C1105       C  0.02051448  0.55928392  0.16052275    -0.54500
C1106       C  0.02090598  0.52904167  0.16892085     0.09500
C1107       C  0.05247564  0.54862456  0.10676308    -0.54000
C1108       C  0.05275964  0.51827975  0.11493575     0.10000
H1109       H  0.96633168  0.55779155  0.09165279     0.14600
H1110       H  0.02723082  0.98477463  0.13373102     0.00300
H1111       H  0.01962325  0.57727763  0.18001110     0.14900
H1112       H  0.07358201  0.55956001  0.09188368     0.14700
C1113       C  0.02147114  0.69918123  0.12283037     0.86400
C1114       C  0.05352983  0.71664332  0.10793044    -0.53800
C1115       C  0.05420354  0.74705103  0.11608141     0.09400
C1116       C  0.02227374  0.75738354  0.13835344     0.20300
C1117       C  0.02237442  0.70590813  0.16217745    -0.54500
C1118       C  0.02272251  0.73622542  0.17048285     0.09500
C1119       C  0.98860677  0.71682739  0.10941501    -0.54000
C1120       C  0.98881083  0.74718282  0.11781183     0.10000
H1121       H  0.07461054  0.70555101  0.09332618     0.14600
H1122       H  0.02279539  0.78214138  0.14474001     0.00300
H1123       H  0.02160744  0.68801372  0.18178474     0.14900
H1124       H  0.96691022  0.70694479  0.09441663     0.14700
In1125     In  0.33851637  0.96432882  0.16243669     1.36900
C1126       C  0.34442944  0.90404707  0.17293478     0.77500
O1127       O  0.36498873  0.98850930  0.20716106    -0.60900
O1128       O  0.30857115  0.99180347  0.20275526    -0.51800
C1129       C  0.39263120  0.99449252  0.13509035     0.70200
O1130       O  0.39646585  0.96911885  0.15032882    -0.46700
C1131       C  0.28461772  0.96595820  0.11690262     0.74900
O1132       O  0.35897090  0.91797792  0.14816649    -0.58500
O1133       O  0.27992765  0.96872628  0.14923832    -0.48600
O1134       O  0.32830765  0.92109302  0.19407708    -0.55000
C1135       C  0.33666059  0.00005816  0.21856496     0.85100
O1136       O  0.35593765  0.49528941  0.12578776    -0.56900
O1137       O  0.31671497  0.96312763  0.10789310    -0.60200
In1138     In  0.33751012  0.80960986  0.17012027     1.36900
C1139       C  0.28301890  0.80318269  0.12493383     0.77500
O1140       O  0.32214451  0.76361804  0.19107254    -0.60900
O1141       O  0.33090828  0.79975350  0.22735648    -0.51800
C1142       C  0.40188183  0.78621367  0.15751735     0.70200
O1143       O  0.38024895  0.79313183  0.13343926    -0.46700
C1144       C  0.34420000  0.87051955  0.17466459     0.74900
O1145       O  0.31495933  0.79786120  0.11687048    -0.58500
O1146       O  0.32533416  0.85538339  0.19559196    -0.48600
O1147       O  0.27875573  0.81099349  0.15622242    -0.55000
C1148       C  0.32452479  0.77167512  0.22258307     0.85100
O1149       O  0.39146469  0.79279497  0.18772081    -0.56900
O1150       O  0.36100854  0.85451493  0.15312344    -0.60200
C1151       C  0.51268157  0.70006883  0.10795335     0.86400
C1152       C  0.48061727  0.71849637  0.12156825    -0.53800
C1153       C  0.48183176  0.74881815  0.11307392     0.09400
C1154       C  0.51487971  0.75810277  0.09191368     0.20300
C1155       C  0.51300081  0.70652369  0.06853257    -0.54500
C1156       C  0.51442910  0.73680079  0.05996380     0.09500
C1157       C  0.54559888  0.71698065  0.12235938    -0.54000
C1158       C  0.54704974  0.74722284  0.11362744     0.10000
H1159       H  0.45810311  0.70894892  0.13545761     0.14600
H1160       H  0.51565507  0.78283182  0.08547128     0.00300
H1161       H  0.51336713  0.68842628  0.04916051     0.14900
H1162       H  0.56615881  0.70580035  0.13783016     0.14700
C1163       C  0.51394458  0.56655964  0.11299942     0.86400
C1164       C  0.54578465  0.55023281  0.13013828    -0.53800
C1165       C  0.54709685  0.51956690  0.12333225     0.09400
C1166       C  0.51627199  0.50786429  0.10019807     0.20300
C1167       C  0.51654244  0.55853556  0.07419105    -0.54500
C1168       C  0.51818834  0.52802991  0.06728746     0.09500
C1169       C  0.48077049  0.54870071  0.12544179    -0.54000
C1170       C  0.48197266  0.51803798  0.11855802     0.10000
H1171       H  0.56587102  0.56204261  0.14574963     0.14600
H1172       H  0.52025815  0.98577788  0.09200679     0.00300
H1173       H  0.51682894  0.57577155  0.05381083     0.14900
H1174       H  0.45803622  0.55873135  0.13835319     0.14700
In1175     In  0.69603077  0.80446772  0.16530481     1.36900
C1176       C  0.69029727  0.86548668  0.17297893     0.77500
O1177       O  0.66922799  0.77896566  0.20952427    -0.60900
O1178       O  0.72566193  0.77798890  0.20731924    -0.51800
C1179       C  0.64152219  0.77500336  0.13650837     0.70200
O1180       O  0.63809766  0.80098950  0.15048265    -0.46700
C1181       C  0.75283719  0.80109799  0.12335717     0.74900
O1182       O  0.67858479  0.85106532  0.14696547    -0.58500
O1183       O  0.75543230  0.80253473  0.15604821    -0.48600
O1184       O  0.70289627  0.84862814  0.19665945    -0.55000
C1185       C  0.69779058  0.76843266  0.22209780     0.85100
O1186       O  0.67306492  0.76481127  0.13600346    -0.56900
O1187       O  0.72118998  0.80064548  0.11194414    -0.60200
In1188     In  0.70133405  0.95978777  0.16822665     1.36900
C1189       C  0.75691984  0.95888201  0.12504949     0.77500
O1190       O  0.71590342  0.50685663  0.19457072    -0.60900
O1191       O  0.70075526  0.96755742  0.22664945    -0.51800
C1192       C  0.64484220  0.99035160  0.14491724     0.70200
O1193       O  0.67645095  0.99656004  0.13645999    -0.46700
C1194       C  0.69166941  0.89920387  0.17365600     0.74900
O1195       O  0.72506206  0.95701365  0.11462259    -0.58500
O1196       O  0.70889522  0.91439364  0.19623310    -0.48600
O1197       O  0.76061223  0.96088595  0.15767259    -0.55000
C1198       C  0.71011900  0.99526515  0.22464661     0.85100
O1199       O  0.64150512  0.96757361  0.16488448    -0.56900
O1200       O  0.67781516  0.91515361  0.14981506    -0.60200
C1201       C  0.57684022  0.49976168  0.13503336    -0.16500
C1202       C  0.61507394  0.00949663  0.13290503    -0.31600
H1203       H  0.57087389  0.47668481  0.14370852     0.12600
H1204       H  0.62201877  0.03195237  0.12283734     0.13100
C1205       C  0.61113013  0.75680401  0.12354162    -0.16500
C1206       C  0.57745189  0.76736241  0.12312138    -0.31600
H1207       H  0.61653399  0.73351709  0.11533758     0.12600
H1208       H  0.57207921  0.79114143  0.12918818     0.13100
C1209       C  0.48654669  0.64965794  0.13238850    -0.13400
C1210       C  0.51392450  0.66585038  0.11525206     0.08800
C1211       C  0.54316395  0.64927719  0.10245697    -0.13400
C1212       C  0.54371699  0.61751420  0.10410945    -0.13400
C1213       C  0.51480288  0.60110352  0.11816293     0.08800
C1214       C  0.48695319  0.61770191  0.13377694    -0.13400
H1215       H  0.46401377  0.66104763  0.14385563     0.12700
H1216       H  0.56506778  0.66097967  0.08971125     0.12700
H1217       H  0.56599453  0.60555310  0.09253200     0.12700
H1218       H  0.46473423  0.60655060  0.14628637     0.12700
C1219       C  0.43550567  0.76973893  0.15147831    -0.16500
C1220       C  0.45210777  0.76999812  0.12058996    -0.31600
H1221       H  0.44608312  0.75592350  0.17267154     0.12600
H1222       H  0.44336831  0.78548283  0.10015281     0.13100
C1223       C  0.41818769  0.50556969  0.12259807    -0.16500
C1224       C  0.45226554  0.49685705  0.12711653    -0.31600
H1225       H  0.41742816  0.03574059  0.11347224     0.12600
H1226       H  0.45844925  0.47408441  0.13656143     0.13100
C1227       C  0.99542802  0.61677371  0.09760450    -0.13400
C1228       C  0.02249158  0.60019439  0.11467996     0.08800
C1229       C  0.05161656  0.61647322  0.12900595    -0.13400
C1230       C  0.05179536  0.64830212  0.12960002    -0.13400
C1231       C  0.02293656  0.66492718  0.11574596     0.08800
C1232       C  0.99567318  0.64868761  0.09807550    -0.13400
H1233       H  0.97310761  0.60568356  0.08489974     0.12700
H1234       H  0.07335696  0.60443228  0.14168978     0.12700
H1235       H  0.07368392  0.66001405  0.14265947     0.12700
H1236       H  0.97357546  0.65994570  0.08546175     0.12700
C1237       C  0.08212034  0.49792018  0.10457370    -0.16500
C1238       C  0.09414938  0.49786880  0.07173811    -0.31600
H1239       H  0.09441011  0.48348837  0.12428295     0.12600
H1240       H  0.09152244  0.00999068  0.04425883     0.13100
C1241       C  0.10191377  0.76444834  0.07650731    -0.16500
C1242       C  0.08471954  0.76728360  0.10697749    -0.31600
H1243       H  0.09120374  0.74933487  0.05648445     0.12600
H1244       H  0.09348717  0.78428773  0.12585321     0.13100
C1245       C  0.93143093  0.00506378  0.09681034    -0.16500
C1246       C  0.95962065  0.49611005  0.10325609    -0.31600
H1247       H  0.92533511  0.02692153  0.10882395     0.12600
H1248       H  0.96704912  0.47336500  0.09469643     0.13100
C1249       C  0.95915543  0.76798714  0.10802518    -0.16500
C1250       C  0.92511498  0.75787232  0.10667424    -0.31600
H1251       H  0.96548239  0.79152030  0.10144166     0.12600
H1252       H  0.91874878  0.73491121  0.11549628     0.13100
C1253       C  0.50216205  0.52349012  0.45117732    -0.13400
C1254       C  0.52237748  0.49785597  0.44197713     0.08800
C1255       C  0.54237394  0.48266249  0.46780055    -0.13400
C1256       C  0.50301102  0.48983162  0.02092817    -0.13400
C1257       C  0.52146371  0.51628488  0.03125934     0.08800
C1258       C  0.54191570  0.53233095  0.00655841    -0.13400
H1259       H  0.48599552  0.53526574  0.43194627     0.12700
H1260       H  0.55865852  0.46311030  0.46127488     0.12700
H1261       H  0.48666772  0.47732181  0.03929666     0.12700
H1262       H  0.55700927  0.55251265  0.01399936     0.12700
C1263       C  0.45653197  0.51567671  0.34669342    -0.16500
C1264       C  0.44423681  0.52117049  0.31449119    -0.31600
H1265       H  0.46476511  0.04291813  0.34302683     0.12600
H1266       H  0.45968519  0.51422771  0.29196734     0.13100
C1267       C  0.49667534  0.74758419  0.45833117    -0.13400
C1268       C  0.51728334  0.77276399  0.44805886     0.08800
C1269       C  0.53717575  0.78898513  0.47336581    -0.13400
C1270       C  0.53706329  0.77397412  0.01541067    -0.13400
C1271       C  0.51707810  0.74767860  0.02338366     0.08800
C1272       C  0.50017626  0.73155690  0.99611759    -0.13400
H1273       H  0.48041686  0.73518360  0.43957232     0.12700
H1274       H  0.55352817  0.80840602  0.46605934     0.12700
H1275       H  0.55112021  0.78649591  0.03566502     0.12700
H1276       H  0.48416360  0.71144472  0.00143919     0.12700
C1277       C  0.45220272  0.74959502  0.35186038    -0.16500
C1278       C  0.43562942  0.74936532  0.32079376    -0.31600
H1279       H  0.44287267  0.73491036  0.37277052     0.12600
H1280       H  0.44682853  0.76221468  0.29918570     0.13100
C1281       C  0.54275641  0.86783972  0.33758935    -0.13400
C1282       C  0.51509336  0.85178382  0.35439593     0.08800
C1283       C  0.48688886  0.86860661  0.36884915    -0.13400
C1284       C  0.48823326  0.90036634  0.36992054    -0.13400
C1285       C  0.51765895  0.91637532  0.35628423     0.08800
C1286       C  0.54407518  0.89971428  0.33860940    -0.13400
H1287       H  0.56458838  0.85638408  0.32503860     0.12700
H1288       H  0.46488990  0.85700966  0.38157608     0.12700
H1289       H  0.46708497  0.91247660  0.38317019     0.12700
H1290       H  0.56678836  0.91058835  0.32666859     0.12700
C1291       C  0.61650085  0.51150893  0.34843455    -0.16500
C1292       C  0.58256445  0.51997272  0.34286864    -0.31600
H1293       H  0.62191839  0.48994635  0.36148247     0.12600
H1294       H  0.57645635  0.04034126  0.33373042     0.13100
C1295       C  0.61166412  0.75805077  0.34769876    -0.16500
C1296       C  0.57761943  0.74810310  0.34847635    -0.31600
H1297       H  0.61791358  0.78128628  0.35577693     0.12600
H1298       H  0.57125884  0.72433274  0.34299881     0.13100
C1299       C  0.00105525  0.99691918  0.20295389    -0.13400
C1300       C  0.02028518  0.51833316  0.20559921     0.08800
C1301       C  0.03730612  0.53523581  0.23228048    -0.13400
C1302       C  0.03641846  0.52511461  0.26683252    -0.13400
C1303       C  0.01867431  0.49785544  0.27528430     0.08800
C1304       C  0.99806975  0.98780570  0.23765885    -0.13400
H1305       H  0.98586445  0.98481385  0.18312146     0.12700
H1306       H  0.05201399  0.55594380  0.22638301     0.12700
H1307       H  0.05056664  0.53808175  0.28667039     0.12700
H1308       H  0.98079467  0.96866577  0.24383388     0.12700
C1309       C  0.99795821  0.78276438  0.24986280    -0.13400
C1310       C  0.01732181  0.76809302  0.27662921     0.08800
C1311       C  0.03773253  0.74230109  0.26829899    -0.13400
C1312       C  0.03944206  0.73187362  0.23386918    -0.13400
C1313       C  0.02103313  0.74720260  0.20703579     0.08800
C1314       C  0.00005813  0.77258921  0.21542955    -0.13400
H1315       H  0.98119317  0.80223936  0.25544078     0.12700
H1316       H  0.05338736  0.73076323  0.28809224     0.12700
H1317       H  0.05592217  0.71225600  0.22809387     0.12700
H1318       H  0.98480648  0.78432251  0.19545954     0.12700
C1319       C  0.99370369  0.87276695  0.37609851    -0.13400
C1320       C  0.02082331  0.85612955  0.35938860     0.08800
C1321       C  0.04770630  0.87239406  0.34181764    -0.13400
C1322       C  0.04658121  0.90403086  0.33933562    -0.13400
C1323       C  0.01855398  0.92063412  0.35436933     0.08800
C1324       C  0.99258991  0.90461924  0.37361584    -0.13400
H1325       H  0.97241426  0.86170048  0.39013055     0.12700
H1326       H  0.06899983  0.86037713  0.32866515     0.12700
H1327       H  0.06718326  0.91562304  0.32457423     0.12700
H1328       H  0.97072436  0.91605905  0.38618494     0.12700
C1329       C  0.11653318  0.50603998  0.37276528    -0.16500
C1330       C  0.08259949  0.51575720  0.37543248    -0.31600
H1331       H  0.12188121  0.48400451  0.36084233     0.12600
H1332       H  0.07682657  0.53865558  0.38466121     0.13100
C1333       C  0.09270389  0.76056583  0.36722227    -0.16500
C1334       C  0.09598703  0.73466139  0.38552615    -0.31600
H1335       H  0.11664265  0.77257756  0.35876113     0.12600
H1336       H  0.07253966  0.72391707  0.39686055     0.13100
C1337       C  0.95019305  0.53262206  0.39221019    -0.16500
C1338       C  0.95325108  0.50908981  0.37016314    -0.31600
H1339       H  0.97372139  0.54179289  0.40537162     0.12600
H1340       H  0.92929674  0.49857387  0.35919178     0.13100
C1341       C  0.93045750  0.75992952  0.37810751    -0.16500
C1342       C  0.96475725  0.75160003  0.38233814    -0.31600
H1343       H  0.92442009  0.78093689  0.36417646     0.12600
H1344       H  0.97159719  0.72962872  0.39363356     0.13100
In1345     In  0.84802142  0.71341587  0.91451668     1.36900
C1346       C  0.85475999  0.65272797  0.92155142     0.77500
O1347       O  0.87215920  0.73418215  0.96337973    -0.60900
O1348       O  0.81768322  0.74325719  0.95244832    -0.51800
C1349       C  0.90153941  0.74311532  0.88415423     0.70200
O1350       O  0.90585797  0.71739824  0.89847775    -0.46700
C1351       C  0.79074853  0.71431561  0.87266809     0.74900
O1352       O  0.86492195  0.66727373  0.89516538    -0.58500
O1353       O  0.78848472  0.71038109  0.90510891    -0.48600
O1354       O  0.84302781  0.66930793  0.94574874    -0.55000
C1355       C  0.84419594  0.74816113  0.97210882     0.85100
O1356       O  0.87002787  0.75323419  0.88512080    -0.56900
O1357       O  0.82206838  0.71836745  0.86173482    -0.60200
In1358     In  0.84635991  0.55833982  0.91856359     1.36900
C1359       C  0.78879619  0.55368201  0.87719472     0.77500
O1360       O  0.84307563  0.51006156  0.93979976    -0.60900
O1361       O  0.83385093  0.54682733  0.97453065    -0.51800
C1362       C  0.91147171  0.54061022  0.90166440     0.70200
O1363       O  0.88676265  0.54341718  0.87932664    -0.46700
C1364       C  0.85426920  0.61912471  0.92228907     0.74900
O1365       O  0.81863963  0.54260138  0.86929160    -0.58500
O1366       O  0.84250001  0.60360079  0.94744550    -0.48600
O1367       O  0.78774102  0.56567193  0.90699864    -0.55000
C1368       C  0.83724036  0.51833617  0.97069803     0.85100
O1369       O  0.90342172  0.54851540  0.93221698    -0.56900
O1370       O  0.86358536  0.60351954  0.89638531    -0.60200
In1371     In  0.20506821  0.71248776  0.91332043     1.36900
C1372       C  0.25912176  0.71784087  0.86822942     0.77500
O1373       O  0.21612682  0.75748874  0.93878470    -0.60900
O1374       O  0.21013125  0.71846643  0.97152773    -0.51800
C1375       C  0.14194449  0.73713744  0.89860102     0.70200
O1376       O  0.16593355  0.73442498  0.87576309    -0.46700
C1377       C  0.20049180  0.65207024  0.91864574     0.74900
O1378       O  0.22806852  0.70975094  0.85912307    -0.58500
O1379       O  0.22563775  0.66715395  0.93243723    -0.48600
O1380       O  0.26226682  0.72452349  0.90006239    -0.55000
C1381       C  0.21379231  0.74715746  0.96941625     0.85100
O1382       O  0.14970853  0.72607185  0.92788765    -0.56900
O1383       O  0.17670570  0.66792036  0.90417552    -0.60200
In1384     In  0.20391531  0.55876340  0.90746529     1.36900
C1385       C  0.20022105  0.61871647  0.91708412     0.77500
O1386       O  0.20021654  0.54988477  0.96554035    -0.60900
O1387       O  0.20939416  0.51250699  0.93178865    -0.51800
C1388       C  0.14735009  0.53477629  0.87564430     0.70200
O1389       O  0.14427228  0.55443963  0.89958886    -0.46700
C1390       C  0.26233668  0.55781607  0.86857298     0.74900
O1391       O  0.17618621  0.60386565  0.90120094    -0.58500
O1392       O  0.26319851  0.55391843  0.90108882    -0.48600
O1393       O  0.22517600  0.60279075  0.92951421    -0.55000
C1394       C  0.20426222  0.52144700  0.96243612     0.85100
O1395       O  0.17904000  0.52863438  0.86724727    -0.56900
O1396       O  0.23163518  0.56208848  0.85583925    -0.60200
C1397       C  0.02602891  0.82119411  0.85393601     0.86400
C1398       C  0.05858191  0.80340284  0.86745692    -0.53800
C1399       C  0.05931339  0.77354400  0.85698352     0.09400
C1400       C  0.02683477  0.76388184  0.83477580     0.20300
C1401       C  0.02623083  0.81639422  0.81421616    -0.54500
C1402       C  0.02678181  0.78650604  0.80405419     0.09500
C1403       C  0.99372849  0.80257321  0.86657899    -0.54000
C1404       C  0.99381014  0.77270837  0.85629956     0.10000
H1405       H  0.08017590  0.81400675  0.88227115     0.14600
H1406       H  0.02696387  0.73942545  0.82708389     0.00300
H1407       H  0.02666158  0.83525282  0.79581797     0.14900
H1408       H  0.97284797  0.81133219  0.88307958     0.14700
C1409       C  0.02411679  0.95376033  0.85883972     0.86400
C1410       C  0.99289501  0.97210276  0.87433952    -0.53800
C1411       C  0.99325858  0.00233884  0.86522951     0.09400
C1412       C  0.02099682  0.51530731  0.83102801     0.20300
C1413       C  0.02182258  0.95975925  0.81946514    -0.54500
C1414       C  0.02225477  0.98984081  0.81040328     0.09500
C1415       C  0.05752372  0.97091311  0.87125887    -0.54000
C1416       C  0.05838379  0.00103818  0.86209254     0.10000
H1417       H  0.97158941  0.96252597  0.88993864     0.14600
H1418       H  0.02060167  0.53997151  0.82423156     0.00300
H1419       H  0.02089196  0.94144535  0.80034353     0.14900
H1420       H  0.07874371  0.95996221  0.88608198     0.14700
In1421     In  0.70304750  0.71136106  0.80660603     1.36900
C1422       C  0.69711240  0.65046237  0.79766182     0.77500
O1423       O  0.67623300  0.73368705  0.76035026    -0.60900
O1424       O  0.73097887  0.74345895  0.76893792    -0.51800
C1425       C  0.64988631  0.73982684  0.83792922     0.70200
O1426       O  0.64485633  0.71634171  0.81935213    -0.46700
C1427       C  0.75955789  0.71370600  0.84932405     0.74900
O1428       O  0.68025540  0.66533218  0.82015174    -0.58500
O1429       O  0.76235397  0.71370061  0.81661014    -0.48600
O1430       O  0.71585245  0.66682355  0.77776969    -0.55000
C1431       C  0.70324456  0.74889422  0.75131328     0.85100
O1432       O  0.68211063  0.74813533  0.84116693    -0.56900
O1433       O  0.72790135  0.71273708  0.86031741    -0.60200
In1434     In  0.70309023  0.55611640  0.80826699     1.36900
C1435       C  0.75818623  0.55371438  0.85308675     0.77500
O1436       O  0.67540211  0.52699500  0.76729569    -0.60900
O1437       O  0.73101798  0.53412479  0.76207639    -0.51800
C1438       C  0.65206371  0.52634681  0.84176424     0.70200
O1439       O  0.68433613  0.51802149  0.84227192    -0.46700
C1440       C  0.69683430  0.61674720  0.79757305     0.74900
O1441       O  0.72865021  0.56549610  0.86066897    -0.58500
O1442       O  0.71694718  0.60041104  0.77914327    -0.48600
O1443       O  0.75958677  0.54279958  0.82276682    -0.55000
C1444       C  0.70337222  0.52067499  0.75080374     0.85100
O1445       O  0.64582572  0.55032668  0.82443423    -0.56900
O1446       O  0.67817662  0.60184943  0.81872923    -0.60200
C1447       C  0.52542742  0.81674492  0.86996698     0.86400
C1448       C  0.49291692  0.79949405  0.85500448    -0.53800
C1449       C  0.49225199  0.76909867  0.86312933     0.09400
C1450       C  0.52443730  0.75845758  0.88494977     0.20300
C1451       C  0.52520909  0.80971171  0.90923629    -0.54500
C1452       C  0.52450154  0.77933319  0.91727437     0.09500
C1453       C  0.55780725  0.79906492  0.85610242    -0.54000
C1454       C  0.55747015  0.76867396  0.86419378     0.10000
H1455       H  0.47144812  0.81063352  0.84071288     0.14600
H1456       H  0.52414379  0.73363485  0.89094771     0.00300
H1457       H  0.52469116  0.82751788  0.92895875     0.14900
H1458       H  0.57901188  0.80879036  0.84064065     0.14700
C1459       C  0.52740597  0.94988638  0.87358160     0.86400
C1460       C  0.56047855  0.96780594  0.86116371    -0.53800
C1461       C  0.56013430  0.99806578  0.87003556     0.09400
C1462       C  0.52781574  0.50684054  0.89294102     0.20300
C1463       C  0.52621954  0.95602921  0.91303961    -0.54500
C1464       C  0.52581005  0.98624218  0.92190756     0.09500
C1465       C  0.49565204  0.96752542  0.85820621    -0.54000
C1466       C  0.49525607  0.99770954  0.86702895     0.10000
H1467       H  0.58201304  0.95834062  0.84597642     0.14600
H1468       H  0.52744805  0.53159345  0.89932337     0.00300
H1469       H  0.52525678  0.93779425  0.93221080     0.14900
H1470       H  0.47467510  0.95685212  0.84262105     0.14700
In1471     In  0.34651172  0.71293500  0.80225720     1.36900
C1472       C  0.28955394  0.71792693  0.84409167     0.77500
O1473       O  0.34119253  0.76027422  0.77962387    -0.60900
O1474       O  0.33173276  0.72233735  0.74617761    -0.51800
C1475       C  0.41193060  0.73347377  0.81649595     0.70200
O1476       O  0.38874552  0.72935497  0.83981168    -0.46700
C1477       C  0.35699572  0.65244337  0.79976674     0.74900
O1478       O  0.32022321  0.72737563  0.85261471    -0.58500
O1479       O  0.34451472  0.66707685  0.77418023    -0.48600
O1480       O  0.28752510  0.70724649  0.81366027    -0.55000
C1481       C  0.33476468  0.75099595  0.74908224     0.85100
O1482       O  0.40219572  0.72580536  0.78622060    -0.56900
O1483       O  0.36526924  0.66875593  0.82556245    -0.60200
In1484     In  0.35332562  0.55848092  0.80893753     1.36900
C1485       C  0.35914766  0.61896835  0.80113953     0.77500
O1486       O  0.37908860  0.53715917  0.76194993    -0.60900
O1487       O  0.32369629  0.52923507  0.77000768    -0.51800
C1488       C  0.40510045  0.52722026  0.83985580     0.70200
O1489       O  0.41035759  0.55351781  0.82722863    -0.45100
C1490       C  0.29457681  0.55758740  0.84730619     0.74900
O1491       O  0.36765409  0.60520331  0.82870101    -0.58500
O1492       O  0.29361420  0.55935337  0.81454540    -0.48600
O1493       O  0.35033377  0.60168308  0.77621198    -0.55000
C1494       C  0.35095553  0.52360481  0.75204617     0.85100
O1495       O  0.37328957  0.51768846  0.83784696    -0.56900
O1496       O  0.32546294  0.55576440  0.86041618    -0.60200
In1497     In  0.83812210  0.80934408  0.55817324     1.36900
C1498       C  0.84264272  0.86973659  0.55096200     0.77500
O1499       O  0.83681299  0.80187102  0.49955433    -0.60900
O1500       O  0.83200879  0.76337111  0.53249922    -0.51800
C1501       C  0.89462842  0.78305066  0.58611866     0.70200
O1502       O  0.89772191  0.80461390  0.56435722    -0.46700
C1503       C  0.78364770  0.80850390  0.60195989     0.74900
O1504       O  0.86660994  0.85425297  0.56594106    -0.58500
O1505       O  0.77997813  0.80294340  0.56990053    -0.48600
O1506       O  0.81773666  0.85416985  0.53736140    -0.55000
C1507       C  0.84296132  0.76884624  0.00242007     0.85100
O1508       O  0.86304655  0.77600901  0.59408276    -0.56900
O1509       O  0.81510561  0.81436035  0.61169687    -0.60200
In1510     In  0.83783880  0.96351057  0.56081017     1.36900
C1511       C  0.78381108  0.96398865  0.60575866     0.77500
O1512       O  0.84387195  0.51087691  0.53705546    -0.60900
O1513       O  0.84979767  0.97083987  0.00113491    -0.51800
C1514       C  0.89491818  0.99134853  0.58764039     0.70200
O1515       O  0.86334208  0.99964311  0.59335817    -0.46700
C1516       C  0.84229621  0.90328733  0.55187883     0.74900
O1517       O  0.81536757  0.95784827  0.61487013    -0.58500
O1518       O  0.81728615  0.91891724  0.53878266    -0.48600
O1519       O  0.77979465  0.96959383  0.57376050    -0.55000
C1520       C  0.83352643  0.99864809  0.50372352     0.85100
O1521       O  0.89774771  0.96782474  0.56879851    -0.56900
O1522       O  0.86581226  0.91860081  0.56796710    -0.60200
In1523     In  0.20052047  0.80566532  0.54859720     1.36900
C1524       C  0.25614800  0.80668958  0.59176408     0.77500
O1525       O  0.21668160  0.76113403  0.52361625    -0.60900
O1526       O  0.20748613  0.79595309  0.99634531    -0.51800
C1527       C  0.14530483  0.77867200  0.57786967     0.70200
O1528       O  0.17715041  0.77169515  0.58478368    -0.46700
C1529       C  0.19321448  0.86619318  0.54217202     0.74900
O1530       O  0.22432682  0.80578556  0.60202584    -0.58500
O1531       O  0.21447742  0.85112955  0.52342498    -0.48600
O1532       O  0.25988932  0.80735588  0.55909188    -0.55000
C1533       C  0.20405474  0.76744063  0.49407506     0.85100
O1534       O  0.14133596  0.79998134  0.55597413    -0.56900
O1535       O  0.17450519  0.85016116  0.56237925    -0.60200
In1536     In  0.19737157  0.96047332  0.55241816     1.36900
C1537       C  0.19216936  0.89983956  0.54297342     0.77500
O1538       O  0.17326355  0.97996403  0.50309994    -0.60900
O1539       O  0.22535198  0.99451484  0.51757379    -0.51800
C1540       C  0.14512627  0.99072914  0.58316794     0.70200
O1541       O  0.13958411  0.96566992  0.56755963    -0.46700
C1542       C  0.25358626  0.96044798  0.59523710     0.74900
O1543       O  0.17432460  0.91419990  0.56528519    -0.58500
O1544       O  0.25634970  0.95743283  0.56271282    -0.48600
O1545       O  0.21078670  0.91663857  0.52346584    -0.55000
C1546       C  0.21412826  0.99716775  0.99299846     0.85100
O1547       O  0.16858761  0.48627175  0.58894502    -0.56900
O1548       O  0.22206386  0.96344224  0.60603774    -0.60200
C1549       C  0.02721369  0.57289024  0.61158242     0.86400
C1550       C  0.99741850  0.55305029  0.59531597    -0.53800
C1551       C  0.00093945  0.52250133  0.60197568     0.09400
C1552       C  0.03434483  0.51439336  0.62366975     0.20300
C1553       C  0.02689473  0.56443652  0.65026638    -0.54500
C1554       C  0.03074807  0.53405775  0.65682642     0.09500
C1555       C  0.06199020  0.55941354  0.59767711    -0.54000
C1556       C  0.06605730  0.52906886  0.60420528     0.10000
H1557       H  0.97489166  0.56168345  0.58052006     0.14600
H1558       H  0.02150464  0.98484160  0.64001011     0.00300
H1559       H  0.02335545  0.58124716  0.67081106     0.14900
H1560       H  0.08262842  0.57310916  0.58528220     0.14700
C1561       C  0.01942613  0.70588859  0.61567588     0.86400
C1562       C  0.05148860  0.72231931  0.59961225    -0.53800
C1563       C  0.05279451  0.75290812  0.60632687     0.09400
C1564       C  0.02152332  0.76459327  0.62817593     0.20300
C1565       C  0.02091825  0.71399426  0.65449882    -0.54500
C1566       C  0.02246675  0.74458944  0.66129362     0.09500
C1567       C  0.98677836  0.72331827  0.60167787    -0.54000
C1568       C  0.98787399  0.75400989  0.60839729     0.10000
H1569       H  0.07147635  0.71061562  0.58417545     0.14600
H1570       H  0.02266451  0.78957372  0.63319954     0.00300
H1571       H  0.02068523  0.69673846  0.67484900     0.14900
H1572       H  0.96478053  0.71310018  0.58732234     0.14700
In1573     In  0.34209276  0.96070208  0.65983420     1.36900
C1574       C  0.34685953  0.90021347  0.66738100     0.77500
O1575       O  0.34898814  0.96883687  0.71801396    -0.60900
O1576       O  0.33250258  0.00580095  0.68631589    -0.51800
C1577       C  0.39717580  0.98799913  0.62967369     0.70200
O1578       O  0.40137842  0.96698609  0.65190637    -0.46700
C1579       C  0.28475132  0.96057492  0.61848716     0.74900
O1580       O  0.36909313  0.91555906  0.64997015    -0.58500
O1581       O  0.28269293  0.96526836  0.65085053    -0.48600
O1582       O  0.32355077  0.91594902  0.68269519    -0.55000
C1583       C  0.34144717  0.99685372  0.71622523     0.85100
O1584       O  0.36930292  0.50692109  0.63360429    -0.56900
O1585       O  0.31588557  0.95606014  0.60744079    -0.60200
In1586     In  0.34032366  0.80599329  0.66128757     1.36900
C1587       C  0.28616098  0.80666782  0.61629129     0.77500
O1588       O  0.32242191  0.76332596  0.68940106    -0.60900
O1589       O  0.34712419  0.79820437  0.71938806    -0.51800
C1590       C  0.39583586  0.77616462  0.63581535     0.70200
O1591       O  0.36392842  0.76862591  0.62953417    -0.46700
C1592       C  0.34646616  0.86658878  0.66762333     0.74900
O1593       O  0.31822106  0.80819636  0.60669818    -0.58500
O1594       O  0.32357091  0.85120458  0.68418458    -0.48600
O1595       O  0.28177992  0.80488379  0.64877922    -0.55000
C1596       C  0.33398636  0.77160280  0.71878346     0.85100
O1597       O  0.39967250  0.79958948  0.65477295    -0.56900
O1598       O  0.36752661  0.85087343  0.64946412    -0.60200
C1599       C  0.52301062  0.70250561  0.59873845     0.86400
C1600       C  0.49031334  0.71792277  0.61490843    -0.53800
C1601       C  0.48875564  0.74876089  0.60908604     0.09400
C1602       C  0.52007190  0.76137024  0.58754645     0.20300
C1603       C  0.52163371  0.71127863  0.56017229    -0.54500
C1604       C  0.51963316  0.74186553  0.55407409     0.09500
C1605       C  0.55505289  0.72046765  0.61354118    -0.54000
C1606       C  0.55376026  0.75112713  0.60726762     0.10000
H1607       H  0.47037979  0.70551080  0.62981165     0.14600
H1608       H  0.51873130  0.78638761  0.58283309     0.00300
H1609       H  0.52232160  0.69447269  0.53931885     0.14900
H1610       H  0.57665022  0.71070854  0.62860476     0.14700
C1611       C  0.52715320  0.56943787  0.59279598     0.86400
C1612       C  0.55968173  0.55168055  0.60664724    -0.53800
C1613       C  0.55839043  0.52101598  0.59993306     0.09400
C1614       C  0.52440832  0.51078569  0.58030928     0.20300
C1615       C  0.52529356  0.56140105  0.55396853    -0.54500
C1616       C  0.52373856  0.53081865  0.54725295     0.09500
C1617       C  0.49501017  0.55333972  0.60903682    -0.54000
C1618       C  0.49311687  0.52280598  0.60216373     0.10000
H1619       H  0.58153353  0.56164841  0.62134486     0.14600
H1620       H  0.52484963  0.98436648  0.58335755     0.00300
H1621       H  0.52564268  0.57858383  0.53353050     0.14900
H1622       H  0.47541628  0.56530070  0.62467768     0.14700
In1623     In  0.69802273  0.80919195  0.66835887     1.36900
C1624       C  0.69023213  0.86942738  0.67719854     0.77500
O1625       O  0.67308142  0.78267304  0.71216240    -0.60900
O1626       O  0.72942227  0.78075808  0.70715947    -0.51800
C1627       C  0.64524475  0.78046445  0.63645238     0.70200
O1628       O  0.64015402  0.80465142  0.65374203    -0.46700
C1629       C  0.75357028  0.80840717  0.62591001     0.74900
O1630       O  0.68187418  0.85543693  0.64974653    -0.58500
O1631       O  0.75714459  0.81205533  0.65836016    -0.48600
O1632       O  0.70073901  0.85242752  0.70169948    -0.55000
C1633       C  0.70201441  0.77135288  0.72288505     0.85100
O1634       O  0.67720093  0.77144323  0.63528099    -0.56900
O1635       O  0.72191796  0.80482451  0.61542283    -0.60200
In1636     In  0.69848420  0.96359016  0.67316683     1.36900
C1637       C  0.75392913  0.96439285  0.63020561     0.77500
O1638       O  0.73035120  0.49498767  0.70210706    -0.60900
O1639       O  0.67425400  0.98694809  0.71964746    -0.51800
C1640       C  0.64570281  0.99422243  0.64370260     0.70200
O1641       O  0.67792584  0.00272758  0.64205863    -0.46700
C1642       C  0.69021710  0.90297120  0.67843372     0.74900
O1643       O  0.72228835  0.96893580  0.62020623    -0.58500
O1644       O  0.70253882  0.91867239  0.70339136    -0.48600
O1645       O  0.75762186  0.96008217  0.66255445    -0.55000
C1646       C  0.70277425  0.00008692  0.72900641     0.85100
O1647       O  0.64038676  0.96949499  0.65996579    -0.56900
O1648       O  0.68008300  0.91838295  0.65263664    -0.60200
C1649       C  0.58684842  0.49981038  0.61164769    -0.16500
C1650       C  0.61688024  0.01266575  0.62851166    -0.31600
H1651       H  0.57946158  0.47673238  0.61921669     0.12600
H1652       H  0.62369520  0.03562690  0.61999856     0.13100
C1653       C  0.61645238  0.76281477  0.62002865    -0.16500
C1654       C  0.58234210  0.77218211  0.61904288    -0.31600
H1655       H  0.62357588  0.74062958  0.60947290     0.12600
H1656       H  0.57526100  0.79509677  0.62730683     0.13100
C1657       C  0.49458477  0.65133141  0.58842398    -0.13400
C1658       C  0.52329648  0.66803695  0.60272648     0.08800
C1659       C  0.55255333  0.65189889  0.61673169    -0.13400
C1660       C  0.55389325  0.62018462  0.61468204    -0.13400
C1661       C  0.52603035  0.60365076  0.59857633     0.08800
C1662       C  0.49601346  0.61966950  0.58621993    -0.13400
H1663       H  0.47164487  0.66300171  0.57741883     0.12700
H1664       H  0.57539970  0.66309147  0.62827267     0.12700
H1665       H  0.57749056  0.60937390  0.62500186     0.12700
H1666       H  0.47395910  0.60759271  0.57386984     0.12700
C1667       C  0.42569866  0.75800447  0.62252315    -0.16500
C1668       C  0.45952405  0.76826845  0.62204862    -0.31600
H1669       H  0.41938617  0.73549631  0.61213523     0.12600
H1670       H  0.46565974  0.79161712  0.62971932     0.13100
C1671       C  0.43019818  0.51487875  0.61781608    -0.16500
C1672       C  0.46328657  0.50345173  0.61434887    -0.31600
H1673       H  0.41966800  0.02667552  0.60096575     0.12600
H1674       H  0.46860662  0.47964505  0.62037712     0.13100
C1675       C  0.99584817  0.62255807  0.59286148    -0.13400
C1676       C  0.02543831  0.60727505  0.60737914     0.08800
C1677       C  0.05351077  0.62474360  0.62173817    -0.13400
C1678       C  0.05144900  0.65634043  0.62305335    -0.13400
C1679       C  0.02119610  0.67164651  0.61016245     0.08800
C1680       C  0.99375444  0.65438597  0.59423128    -0.13400
H1681       H  0.97346480  0.61043416  0.58157151     0.12700
H1682       H  0.07662489  0.61373811  0.63329304     0.12700
H1683       H  0.07315829  0.66894254  0.63531092     0.12700
H1684       H  0.97001904  0.66481138  0.58361464     0.12700
C1685       C  0.10093124  0.51454812  0.59822625    -0.16500
C1686       C  0.10456714  0.48668822  0.58438257    -0.31600
H1687       H  0.12457297  0.52873200  0.60225260     0.12600
H1688       H  0.12377363  0.03282107  0.60545539     0.13100
C1689       C  0.11562774  0.76189920  0.59345487    -0.16500
C1690       C  0.08213632  0.77255546  0.59390668    -0.31600
H1691       H  0.12164764  0.73972868  0.60478640     0.12600
H1692       H  0.07627533  0.79569090  0.58545301     0.13100
C1693       C  0.92535153  0.00927682  0.60096435    -0.16500
C1694       C  0.97251589  0.50029312  0.59250905    -0.31600
H1695       H  0.91930777  0.03200869  0.61061651     0.12600
H1696       H  0.97949681  0.47914033  0.57947441     0.13100
C1697       C  0.95890881  0.77481482  0.59758573    -0.16500
C1698       C  0.92479181  0.76573160  0.60020001    -0.31600
H1699       H  0.96558041  0.79738720  0.58776000     0.12600
H1700       H  0.91854220  0.74404819  0.61262103     0.13100
C1701       C  0.54328598  0.52244630  0.97199620    -0.13400
C1702       C  0.52445850  0.49621549  0.96153158     0.08800
C1703       C  0.50442936  0.47990756  0.98635361    -0.13400
C1704       C  0.54222952  0.49300266  0.50222493    -0.13400
C1705       C  0.52224809  0.51876402  0.51131897     0.08800
C1706       C  0.50206471  0.53384190  0.48556619    -0.13400
H1707       H  0.55951398  0.53505800  0.95362268     0.12700
H1708       H  0.48924683  0.45978671  0.97890298     0.12700
H1709       H  0.55848049  0.48136769  0.52150784     0.12700
H1710       H  0.48603320  0.55356340  0.49208131     0.12700
C1711       C  0.46756815  0.51768575  0.85827662    -0.16500
C1712       C  0.43363687  0.50800866  0.85442726    -0.31600
H1713       H  0.45193028  0.03019030  0.87818323     0.12600
H1714       H  0.42646865  0.48473135  0.86141178     0.13100
C1715       C  0.50298803  0.74162062  0.96167222    -0.13400
C1716       C  0.52272122  0.76803384  0.95373053     0.08800
C1717       C  0.53986018  0.78404570  0.98096027    -0.13400
C1718       C  0.53701375  0.77968790  0.50824219    -0.13400
C1719       C  0.51711668  0.75398300  0.51821289     0.08800
C1720       C  0.49649870  0.73834070  0.49307918    -0.13400
H1721       H  0.48891907  0.72912261  0.94140894     0.12700
H1722       H  0.55580930  0.80419786  0.97562027     0.12700
H1723       H  0.55338245  0.79187135  0.52710245     0.12700
H1724       H  0.48035328  0.71875794  0.50030297     0.12700
C1725       C  0.46107305  0.74938102  0.85543353    -0.16500
C1726       C  0.44676546  0.74805313  0.82336250    -0.31600
H1727       H  0.44922315  0.73656536  0.87671172     0.12600
H1728       H  0.46020663  0.75925402  0.80179243     0.13100
C1729       C  0.55264517  0.86766069  0.84875289    -0.13400
C1730       C  0.52420518  0.85109887  0.86368123     0.08800
C1731       C  0.49495373  0.86750813  0.87671062    -0.13400
C1732       C  0.49556087  0.89932744  0.87778195    -0.13400
C1733       C  0.52546450  0.91580162  0.86589306     0.08800
C1734       C  0.55326722  0.89953251  0.84988470    -0.13400
H1735       H  0.57552696  0.85667851  0.83760566     0.12700
H1736       H  0.47239443  0.85556465  0.88802006     0.12700
H1737       H  0.47339424  0.91112227  0.88974565     0.12700
H1738       H  0.57655432  0.91071004  0.83939107     0.12700
C1739       C  0.62400417  0.50806187  0.85847710    -0.16500
C1740       C  0.59022383  0.51785496  0.86226948    -0.31600
H1741       H  0.63131895  0.48515506  0.86674801     0.12600
H1742       H  0.58195834  0.04291285  0.85352151     0.13100
C1743       C  0.62068647  0.75750413  0.85331920    -0.16500
C1744       C  0.58650005  0.74785300  0.85346722    -0.31600
H1745       H  0.62748310  0.77989653  0.86376082     0.12600
H1746       H  0.57965967  0.72475494  0.84536305     0.13100
C1747       C  0.00270126  0.99306994  0.71302254    -0.13400
C1748       C  0.03029203  0.52216595  0.69281135     0.08800
C1749       C  0.04748983  0.53856832  0.71966117    -0.13400
C1750       C  0.04416968  0.52938770  0.75426855    -0.13400
C1751       C  0.02361261  0.50362648  0.76267476     0.08800
C1752       C  0.00252408  0.98354676  0.74785066    -0.13400
H1753       H  0.98712786  0.98042683  0.69392594     0.12700
H1754       H  0.06343227  0.55863599  0.71385008     0.12700
H1755       H  0.05810424  0.54222162  0.77435355     0.12700
H1756       H  0.98691243  0.96357932  0.75476604     0.12700
C1757       C  0.00957274  0.79402992  0.74119965    -0.13400
C1758       C  0.02739098  0.77692740  0.76700602     0.08800
C1759       C  0.04524805  0.75015642  0.75736011    -0.13400
C1760       C  0.04429438  0.74009731  0.72289450    -0.13400
C1761       C  0.02541610  0.75658592  0.69730551     0.08800
C1762       C  0.00859852  0.78392846  0.70663833    -0.13400
H1763       H  0.99532620  0.81467364  0.74787105     0.12700
H1764       H  0.06015412  0.73700068  0.77637163     0.12700
H1765       H  0.05845077  0.71937855  0.71629650     0.12700
H1766       H  0.99363470  0.79695064  0.68754696     0.12700
C1767       C  0.99839949  0.87071493  0.87836288    -0.13400
C1768       C  0.02716444  0.85507327  0.86289867     0.08800
C1769       C  0.05676504  0.87220856  0.85170465    -0.13400
C1770       C  0.05632126  0.90394634  0.85292134    -0.13400
C1771       C  0.02634402  0.91966400  0.86560867     0.08800
C1772       C  0.99801921  0.90260284  0.87969674    -0.13400
H1773       H  0.97496082  0.85909865  0.88779107     0.12700
H1774       H  0.07943747  0.86101285  0.83985728     0.12700
H1775       H  0.07864607  0.91635838  0.84182985     0.12700
H1776       H  0.97438753  0.91337161  0.88982216     0.12700
C1777       C  0.11699559  0.51825730  0.85993905    -0.16500
C1778       C  0.08279931  0.52671150  0.86365438    -0.31600
H1779       H  0.12302418  0.49726820  0.84602973     0.12600
H1780       H  0.07608716  0.54852922  0.87534554     0.13100
C1781       C  0.09085429  0.75379883  0.86244852    -0.16500
C1782       C  0.10831618  0.75364806  0.89300113    -0.31600
H1783       H  0.09970047  0.73935209  0.84117844     0.12600
H1784       H  0.09740384  0.76602271  0.91504417     0.13100
C1785       C  0.94612718  0.52685751  0.89358437    -0.16500
C1786       C  0.95846823  0.52513388  0.86096928    -0.31600
H1787       H  0.96081386  0.51603514  0.91474272     0.12600
H1788       H  0.94542828  0.53745682  0.83989203     0.13100
C1789       C  0.93072697  0.76120879  0.86884619    -0.16500
C1790       C  0.96457053  0.75120828  0.86575921    -0.31600
H1791       H  0.92418577  0.78443366  0.86120190     0.12600
H1792       H  0.97106217  0.72748837  0.87102399     0.13100
loop_ 
_geom_bond_atom_site_label_1 
_geom_bond_atom_site_label_2 
_geom_bond_distance 
_geom_bond_site_symmetry_2 
_ccdc_geom_bond_type 
In1           O3   2.257       .  S
In1           O4   2.274       .  S
In1          O12   2.219       .  S
In1           O6   2.237       .  S
In1           O8   2.232       .  S
In1           O9   2.247       .  S
In1          O10   2.280       .  S
In1          O13   2.248       .  S
C2            O8   1.255       .  A
C2           O10   1.261       .  A
C2           C20   1.466       .  S
O3           C11   1.258       .  A
O4           C11   1.260       .  A
C5           O12   1.263       .  A
C5            O6   1.264       .  A
C5          C445   1.462       .  S
C7            O9   1.259       .  A
C7           O13   1.257       .  A
C7           C83   1.462       .  S
C11         C163   1.473       .  S
In14         O16   2.262       .  S
In14         O17   2.247       .  S
In14         O25   2.249       .  S
In14         O19   2.229       .  S
In14         O21   2.256       .  S
In14         O22   2.279       .  S
In14         O23   2.254       .  S
In14         O26   2.234       .  S
C15          O21   1.257       .  A
C15          O23   1.259       .  A
C15          C91   1.466       .  S
O16          C24   1.261       .  A
O17          C24   1.262       .  A
C18          O25   1.261       .  A
C18          O19   1.260       .  A
C18         C441   1.466       .  S
C20          O22   1.260       .  A
C20          O26   1.256       .  A
C24        C1520   1.470   1_545  S
In27         O29   2.252       .  S
In27         O30   2.247       .  S
In27         O38   2.240       .  S
In27         O32   2.230       .  S
In27         O34   2.261       .  S
In27         O35   2.282       .  S
In27         O36   2.264       .  S
In27         O39   2.243       .  S
C28          O34   1.256       .  A
C28          O36   1.258       .  A
C28         C128   1.469       .  S
O29          C37   1.261       .  A
O30          C37   1.264       .  A
C31          O38   1.261       .  A
C31          O32   1.263       .  A
C31         C438   1.464       .  S
C33          O35   1.260       .  A
C33          O39   1.254       .  A
C33          C41   1.468       .  S
C37         C637   1.468       .  S
In40         O42   2.258       .  S
In40         O43   2.265       .  S
In40         O51   2.233       .  S
In40         O45   2.235       .  S
In40         O47   2.244       .  S
In40         O48   2.239       .  S
In40         O49   2.285       .  S
In40         O52   2.251       .  S
C41          O47   1.254       .  A
C41          O49   1.258       .  A
O42          C50   1.257       .  A
O43          C50   1.259       .  A
C44          O51   1.263       .  A
C44          O45   1.265       .  A
C44         C433   1.467       .  S
C46          O48   1.257       .  A
C46          O52   1.258       .  A
C46         C146   1.457       .  S
C50        C1098   1.468   1_545  S
C53          C54   1.529       .  S
C53          C59   1.535   1_455  S
C53          C57   1.538       .  S
C53         C424   1.520       .  S
C54          H61   1.087       .  S
C54          C55   1.365       .  D
C55          C56   1.537       .  S
C55         C437   1.472       .  S
C56          C60   1.537   1_455  S
C56          C58   1.538       .  S
C56          H62   1.111       .  S
C57          H63   1.086       .  S
C57          C58   1.365       .  D
C58         C414   1.482       .  S
C59          H64   1.080       .  S
C59          C60   1.365       .  D
C60         C446   1.478       .  S
C65          C66   1.537   1_455  S
C65          C71   1.526       .  S
C65          C69   1.533       .  S
C65         C427   1.517       .  S
C66          H73   1.083       .  S
C66          C67   1.361       .  D
C67         C964   1.540   1_655  S
C67        C1338   1.472       .  S
C68         C963   1.532   1_455  S
C68         C968   1.534       .  S
C68         C966   1.539   1_545  S
C68          H74   1.111       .  S
C69          H75   1.086       .  S
C69          C70   1.365       .  D
C70        C1303   1.482       .  S
C70         C964   1.545       .  S
C71          H76   1.087       .  S
C71          C72   1.365       .  D
C72         C964   1.542       .  S
C72        C1330   1.482       .  S
In77         O79   2.261       .  S
In77         O80   2.276       .  S
In77         O88   2.227       .  S
In77         O82   2.254       .  S
In77         O84   2.274       .  S
In77         O85   2.250       .  S
In77         O86   2.274       .  S
In77         O89   2.243       .  S
C78          O84   1.261       .  A
C78          O86   1.261       .  A
C78          C96   1.480       .  S
O79          C87   1.256       .  A
O80          C87   1.263       .  A
C81          O88   1.259       .  A
C81          O82   1.265       .  A
C81         C399   1.468       .  S
C83          O85   1.261       .  A
C83          O89   1.258       .  A
C87         C289   1.476       .  S
In90         O92   2.264       .  S
In90         O93   2.273       .  S
In90        O101   2.261       .  S
In90         O95   2.229       .  S
In90         O97   2.250       .  S
In90         O98   2.273       .  S
In90         O99   2.261       .  S
In90        O102   2.266       .  S
C91          O97   1.257       .  A
C91          O99   1.260       .  A
O92         C100   1.256       .  A
O93         C100   1.262       .  A
C94         O101   1.264       .  A
C94          O95   1.259       .  A
C94         C395   1.470       .  S
C96          O98   1.262       .  A
C96         O102   1.261       .  A
C100       C1198   1.473   1_545  S
C103        C104   1.539       .  S
C103        C109   1.540       .  S
C103        C107   1.537       .  S
C103        C386   1.525       .  S
C104        H111   1.086       .  S
C104        C105   1.366       .  D
C105        C106   1.534       .  S
C105        C381   1.476       .  S
C106        C110   1.537       .  S
C106        C108   1.538       .  S
C106        H112   1.111       .  S
C107        H113   1.086       .  S
C107        C108   1.364       .  D
C108        C372   1.483       .  S
C109        H114   1.083       .  S
C109        C110   1.367       .  D
C110        C400   1.477       .  S
C115        C116   1.539       .  S
C115        C121   1.538       .  S
C115        C119   1.536       .  S
C115        C389   1.524       .  S
C116        H123   1.083       .  S
C116        C117   1.368       .  D
C117       C1014   1.534       .  S
C117       C1292   1.476       .  S
C118       C1013   1.538   1_545  S
C118       C1018   1.539   1_545  S
C118       C1016   1.546   1_545  S
C118        H124   1.111       .  S
C119        H125   1.086       .  S
C119        C120   1.363       .  D
C120       C1254   1.478       .  S
C120       C1014   1.537       .  S
C121        H126   1.086       .  S
C121        C122   1.365       .  D
C122       C1014   1.530       .  S
C122       C1263   1.468       .  S
In127       O129   2.254       .  S
In127       O130   2.254       .  S
In127       O138   2.252       .  S
In127       O132   2.244       .  S
In127       O134   2.256       .  S
In127       O135   2.278       .  S
In127       O136   2.268       .  S
In127       O139   2.249       .  S
C128        O134   1.257       .  A
C128        O136   1.260       .  A
O129        C137   1.260       .  A
O130        C137   1.263       .  A
C131        O138   1.261       .  A
C131        O132   1.262       .  A
C131        C382   1.473       .  S
C133        O135   1.260       .  A
C133        O139   1.257       .  A
C133        C141   1.470       .  S
C137        C252   1.469       .  S
In140       O142   2.239       .  S
In140       O143   2.259       .  S
In140       O151   2.227       .  S
In140       O145   2.252       .  S
In140       O147   2.245       .  S
In140       O148   2.244       .  S
In140       O149   2.273       .  S
In140       O152   2.234       .  S
C141        O147   1.258       .  A
C141        O149   1.261       .  A
O142        C150   1.259       .  A
O143        C150   1.259       .  A
C144        O151   1.261       .  A
C144        O145   1.264       .  A
C144        C368   1.469       .  S
C146        O148   1.260       .  A
C146        O152   1.259       .  A
C150       C1135   1.463       .  S
In153       O155   2.252       .  S
In153       O156   2.277       .  S
In153       O164   2.238       .  S
In153       O158   2.234       .  S
In153       O160   2.245       .  S
In153       O161   2.247       .  S
In153       O162   2.281       .  S
In153       O165   2.247       .  S
C154        O160   1.256       .  A
C154        O162   1.261       .  A
C154        C172   1.473       .  S
O155        C611   1.258       .  A
O156        C611   1.260       .  A
C157        O164   1.262       .  A
C157        O158   1.262       .  A
C157        C354   1.467       .  S
C159        O161   1.262       .  A
C159        O165   1.259       .  A
C159        C285   1.464       .  S
C163        O603   1.259       .  A
C163        O604   1.259       .  A
In166       O177   2.275       .  S
In166       O171   2.219       .  S
In166       O173   2.240       .  S
In166       O174   2.275       .  S
In166       O175   2.265       .  S
In166       O178   2.249       .  S
In166      O1064   2.256       .  S
In166       O617   2.280   1_554  S
C167        O173   1.256       .  A
C167        O175   1.261       .  A
C167        C293   1.465       .  S
O168      In1062   2.260   1_545  S
O168       C1072   1.258   1_545  A
O169       In614   2.266       .  S
O169        C624   1.262       .  A
C170        O177   1.265       .  A
C170        O171   1.257       .  A
C170        C349   1.470       .  S
C172        O174   1.262       .  A
C172        O178   1.260       .  A
C176       O1064   1.256       .  A
C176        O617   1.262   1_554  A
C176       C1368   1.474   1_554  S
In179       O181   2.272       .  S
In179       O190   2.237       .  S
In179       O184   2.240       .  S
In179       O186   2.255       .  S
In179       O187   2.262       .  S
In179       O188   2.245       .  S
In179       O191   2.257       .  S
In179       O630   2.244   1_554  S
C180        O186   1.259       .  A
C180        O188   1.259       .  A
C180        C243   1.462       .  S
O181        C189   1.262   1_554  A
O182       In627   2.261       .  S
O182        C637   1.262       .  A
C183        O190   1.259       .  A
C183        O184   1.263       .  A
C183        C345   1.466       .  S
C185        O187   1.259       .  A
C185        O191   1.257       .  A
C185        C193   1.467       .  S
C189        O630   1.262       .  A
C189        C485   1.473       .  S
In192       O194   2.259       .  S
In192       O195   2.238   1_554  S
In192       O197   2.244       .  S
In192       O199   2.257       .  S
In192       O200   2.252       .  S
In192       O201   2.261       .  S
In192       O204   2.244       .  S
In192      O1099   2.238       .  S
C193        O199   1.257       .  A
C193        O201   1.257       .  A
O194        C650   1.262   1_554  A
O195        C650   1.262       .  A
C196        O197   1.261       .  A
C196       O1099   1.262       .  A
C196       C1238   1.467       .  S
C198        O200   1.259       .  A
C198        O204   1.257       .  A
C198        C235   1.462       .  S
C202        O642   1.259       .  A
C202        O643   1.262       .  A
C202        C946   1.474       .  S
O203      In1088   2.236       .  S
O203       C1092   1.263       .  A
C205        C206   1.543   1_455  S
C205        C211   1.535       .  S
C205        C209   1.533       .  S
C205        C332   1.522       .  S
C206        H213   1.082       .  S
C206        C207   1.367       .  D
C207        C208   1.533   1_655  S
C207        C350   1.479   1_545  S
C208        C212   1.534       .  S
C208        C210   1.538       .  S
C208       H1110   1.111   1_545  S
C209        H215   1.087       .  S
C209        C210   1.361       .  D
C210        C404   1.476       .  S
C211        H216   1.086       .  S
C211        C212   1.368       .  D
C212        C341   1.473   1_545  S
H214       C1104   1.110       .  S
C217        C218   1.533       .  S
C217        C223   1.542   1_455  S
C217        C221   1.538       .  S
C217        C335   1.525       .  S
C218        H225   1.086       .  S
C218        C219   1.366       .  D
C219        C220   1.534       .  S
C219        C346   1.475       .  S
C220        C224   1.534   1_455  S
C220        C222   1.540       .  S
C220        H226   1.110       .  S
C221        H227   1.086       .  S
C221        C222   1.366       .  D
C222        C417   1.484       .  S
C223        H228   1.081       .  S
C223        C224   1.366       .  D
C224        C353   1.479       .  S
In229       O231   2.267       .  S
In229       O232   2.248       .  S
In229       O234   2.262       .  S
In229       O236   2.245       .  S
In229       O237   2.251       .  S
In229       O238   2.270       .  S
In229       O241   2.245       .  S
In229      O1136   2.224       .  S
C230        O236   1.261       .  A
C230        O238   1.263       .  A
C230        C248   1.473       .  S
O231        C239   1.261       .  A
O232        C239   1.256       .  A
C233        O234   1.263       .  A
C233       O1136   1.258       .  A
C233       C1223   1.469       .  S
C235        O237   1.261       .  A
C235        O241   1.258       .  A
C239       C1046   1.468       .  S
O240      In1125   2.235   1_545  S
O240       C1129   1.263   1_545  A
In242       O244   2.250       .  S
In242       O245   2.263       .  S
In242       O253   2.263       .  S
In242       O247   2.231       .  S
In242       O249   2.235       .  S
In242       O250   2.268       .  S
In242       O251   2.252       .  S
In242       O254   2.246       .  S
C243        O249   1.258       .  A
C243        O251   1.261       .  A
O244        C252   1.257       .  A
O245        C252   1.262       .  A
C246        O253   1.263       .  A
C246        O247   1.257       .  A
C246        C323   1.469       .  S
C248        O250   1.263       .  A
C248        O254   1.260       .  A
C255        C256   1.533       .  S
C255        C261   1.540       .  S
C255        C259   1.529       .  S
C255        C314   1.522       .  S
C256        H263   1.086       .  S
C256        C257   1.369       .  D
C257        C258   1.539       .  S
C257        C324   1.481       .  S
C258        C262   1.535       .  S
C258        C260   1.545       .  S
C258        H264   1.111       .  S
C259        H265   1.087       .  S
C259        C260   1.361       .  D
C260        C375   1.479       .  S
C261        H266   1.081       .  S
C261        C262   1.367       .  D
C262        C310   1.479       .  S
C267        C268   1.540       .  S
C267        C273   1.531       .  S
C267        C271   1.535       .  S
C267        C317   1.522       .  S
C268        H275   1.081       .  S
C268        C269   1.367       .  D
C269        C270   1.536       .  S
C269        C305   1.482       .  S
C270        C274   1.535       .  S
C270        C272   1.542       .  S
C270       H1172   1.110   1_545  S
C271        H277   1.086       .  S
C271        C272   1.366       .  D
C272        C361   1.485       .  S
C273        H278   1.086       .  S
C273        C274   1.365       .  D
C274        C328   1.475       .  S
H276       C1166   1.111       .  S
In279       O281   2.281       .  S
In279       O282   2.262       .  S
In279       O290   2.213       .  S
In279       O284   2.265       .  S
In279       O286   2.264       .  S
In279       O287   2.260       .  S
In279       O288   2.274       .  S
In279       O291   2.246       .  S
C280        O286   1.260       .  A
C280        O288   1.262       .  A
C280        C298   1.479       .  S
O281        C289   1.262       .  A
O282        C289   1.255       .  A
C283        O290   1.258       .  A
C283        O284   1.266       .  A
C283        C309   1.467       .  S
C285        O287   1.260       .  A
C285        O291   1.256       .  A
In292       O295   2.268       .  S
In292       O303   2.263       .  S
In292       O297   2.232       .  S
In292       O299   2.255       .  S
In292       O300   2.269       .  S
In292       O301   2.245       .  S
In292       O304   2.265       .  S
In292      O1190   2.266       .  S
C293        O299   1.259       .  A
C293        O301   1.260       .  A
O294      In1188   2.257   1_545  S
O294       C1198   1.257   1_545  A
O295        C302   1.262       .  A
C296        O303   1.264       .  A
C296        O297   1.259       .  A
C296        C306   1.471       .  S
C298        O300   1.261       .  A
C298        O304   1.262       .  A
C302       O1190   1.257       .  A
C302        C996   1.475       .  S
C305        H307   1.086   1_545  S
C305       C1202   1.341       .  D
C306        H308   1.087       .  S
C306       C1201   1.341       .  D
C309        H311   1.088       .  S
C309        C310   1.340       .  D
C310        H312   1.086       .  S
C313        C314   1.406       .  A
C313        C318   1.392       .  A
C313        H319   1.084       .  S
C314        C315   1.408       .  A
C315        C316   1.396       .  A
C315        H320   1.076       .  S
C316        C317   1.408       .  A
C316        H321   1.076       .  S
C317        C318   1.406       .  A
C318        H322   1.084       .  S
C323        H325   1.087       .  S
C323        C324   1.342       .  D
C324        H326   1.086       .  S
C327       C1129   1.465   1_545  S
C327       H1225   1.086       .  S
C327        C328   1.342       .  D
C328        H330   1.086   1_545  S
H329       C1223   1.087       .  S
C331        C332   1.406   1_655  A
C331        C336   1.394       .  A
C331        H337   1.077       .  S
C332        C333   1.408       .  A
C333        C334   1.396       .  A
C333        H338   1.083       .  S
C334        C335   1.407       .  A
C334        H339   1.083       .  S
C335        C336   1.408   1_455  A
C336        H340   1.076       .  S
C341        H343   1.086       .  S
C341        C342   1.338       .  D
C342       C1092   1.466       .  S
C342       H1240   1.087   1_565  S
H344       C1238   1.087       .  S
C345        H347   1.087       .  S
C345        C346   1.339       .  D
C346        H348   1.086       .  S
C349        H351   1.087       .  S
C349       C1246   1.341       .  D
C350        H352   1.086       .  S
C350       C1245   1.340   1_565  D
C353        H355   1.086       .  S
C353        C354   1.343       .  D
C354        H356   1.086       .  S
C357        C358   1.401   1_545  A
C357        C810   1.398       .  A
C357        H363   1.083       .  S
C358       C1016   1.485       .  S
C358        C359   1.409       .  A
C359        C808   1.400       .  A
C359        H364   1.083       .  S
C360        C361   1.403   1_565  A
C360        C807   1.400   1_554  A
C360        H365   1.083       .  S
C361        C362   1.406       .  A
C362        C805   1.394   1_554  A
C362        H366   1.082       .  S
C367       H1265   1.086       .  S
C367        C368   1.344       .  D
C367       C1018   1.482   1_545  S
C368        H370   1.086   1_545  S
H369       C1263   1.086       .  S
C371        C372   1.402       .  A
C371        C824   1.398       .  A
C371        H377   1.083       .  S
C372        C373   1.406       .  A
C373        C822   1.397       .  A
C373        H378   1.083       .  S
C374        C375   1.400       .  A
C374        C821   1.398   1_554  A
C374        H379   1.083       .  S
C375        C376   1.407       .  A
C376        C819   1.394   1_554  A
C376        H380   1.083       .  S
C381        H383   1.086       .  S
C381        C382   1.340       .  D
C382        H384   1.087       .  S
C385        C386   1.409       .  A
C385        C390   1.400       .  A
C385        H391   1.079       .  S
C386        C387   1.406       .  A
C387        C388   1.392       .  A
C387        H392   1.084       .  S
C388        C389   1.406       .  A
C388        H393   1.083       .  S
C389        C390   1.409       .  A
C390        H394   1.077       .  S
C395        H397   1.087   1_545  S
C395        C396   1.342       .  D
C396       H1294   1.086       .  S
C396       C1013   1.479   1_545  S
H398       C1292   1.086       .  S
C399        H401   1.088       .  S
C399        C400   1.340       .  D
C400        H402   1.086       .  S
C403        C408   1.394       .  A
C403       C1300   1.400       .  A
C403        H409   1.082   1_455  S
C404        C405   1.405       .  A
C404       C1299   1.401   1_545  A
C405        C406   1.396       .  A
C405        H410   1.083       .  S
C406        C407   1.403       .  A
C406        H411   1.082       .  S
C407        C966   1.480   1_545  S
C407       C1304   1.406   1_445  A
C408       C1303   1.407       .  A
C408        H412   1.082   1_455  S
C413        C414   1.405       .  A
C413        C418   1.394       .  A
C413        H419   1.083   1_455  S
C414        C415   1.403       .  A
C415        C416   1.400       .  A
C415        H420   1.083       .  S
C416        C417   1.407       .  A
C416        H421   1.082       .  S
C417        C418   1.403       .  A
C418        H422   1.082   1_455  S
C423        C424   1.408       .  A
C423        C428   1.393       .  A
C423        H429   1.077   1_455  S
C424        C425   1.405       .  A
C425        C426   1.392       .  A
C425        H430   1.083       .  S
C426        C427   1.406       .  A
C426        H431   1.083       .  S
C427        C428   1.405       .  A
C428        H432   1.078   1_455  S
C433        H435   1.087   1_545  S
C433        C434   1.342       .  D
C434        H436   1.086       .  S
C434        C968   1.476       .  S
C437        H439   1.086       .  S
C437        C438   1.339       .  D
C438        H440   1.087       .  S
C441        H443   1.087       .  S
C441        C442   1.339       .  D
C442        H444   1.086       .  S
C442        C963   1.471       .  S
C445        H447   1.086       .  S
C445        C446   1.344       .  D
C446        H448   1.086       .  S
In449       O451   2.250       .  S
In449       O452   2.273       .  S
In449       O460   2.236       .  S
In449       O454   2.259       .  S
In449       O456   2.240       .  S
In449       O457   2.248       .  S
In449       O458   2.287       .  S
In449       O461   2.262       .  S
C450        O456   1.254       .  A
C450        O458   1.259       .  A
C450        C468   1.469       .  S
O451        C459   1.259       .  A
O452        C459   1.262       .  A
C453        O460   1.262       .  A
C453        O454   1.264       .  A
C453        C893   1.472       .  S
C455        O457   1.257       .  A
C455        O461   1.257       .  A
C455        C531   1.464       .  S
C459        C611   1.472   1_556  S
In462       O464   2.247       .  S
In462       O465   2.260       .  S
In462       O473   2.247       .  S
In462       O467   2.244       .  S
In462       O469   2.260       .  S
In462       O470   2.283       .  S
In462       O471   2.262       .  S
In462       O474   2.238       .  S
C463        O469   1.258       .  A
C463        O471   1.259       .  A
C463        C539   1.469       .  S
O464        C472   1.260       .  A
O465        C472   1.265       .  A
C466        O473   1.261       .  A
C466        O467   1.263       .  A
C466        C889   1.471       .  S
C468        O470   1.261       .  A
C468        O474   1.256       .  A
C472       C1072   1.471   1_546  S
In475       O477   2.246       .  S
In475       O478   2.276       .  S
In475       O486   2.258       .  S
In475       O480   2.237       .  S
In475       O482   2.255       .  S
In475       O483   2.268       .  S
In475       O484   2.258       .  S
In475       O487   2.242       .  S
C476        O482   1.257       .  A
C476        O484   1.258       .  A
C476        C576   1.467       .  S
O477        C485   1.258       .  A
O478        C485   1.263       .  A
C479        O486   1.262       .  A
C479        O480   1.263       .  A
C479        C886   1.477       .  S
C481        O483   1.262       .  A
C481        O487   1.258       .  A
C481        C489   1.469       .  S
In488       O490   2.269       .  S
In488       O491   2.239       .  S
In488       O499   2.222       .  S
In488       O493   2.257       .  S
In488       O495   2.239       .  S
In488       O496   2.252       .  S
In488       O497   2.262       .  S
In488       O500   2.238       .  S
C489        O495   1.260       .  A
C489        O497   1.263       .  A
O490        C498   1.262       .  A
O491        C498   1.256       .  A
C492        O499   1.258       .  A
C492        O493   1.263       .  A
C492        C881   1.465       .  S
C494        O496   1.260       .  A
C494        O500   1.256       .  A
C494        C594   1.460       .  S
C498       C1546   1.467   1_545  S
C501        C502   1.530       .  S
C501        C507   1.536       .  S
C501        C505   1.533       .  S
C501        C872   1.518       .  S
C502        H509   1.087       .  S
C502        C503   1.360       .  D
C503        C504   1.545       .  S
C503        C885   1.477       .  S
C504        C508   1.543       .  S
C504        C506   1.546       .  S
C504        H510   1.110       .  S
C505        H511   1.086       .  S
C505        C506   1.365       .  D
C506        C862   1.484       .  S
C507        H512   1.081   1_455  S
C507        C508   1.366       .  D
C508        C894   1.485   1_455  S
C513        C514   1.540   1_455  S
C513        C519   1.531       .  S
C513        C517   1.533       .  S
C513        C875   1.516       .  S
C514        H521   1.082       .  S
C514        C515   1.367       .  D
C515       C1412   1.534   1_655  S
C515       C1786   1.473       .  S
C516       C1411   1.537   1_455  S
C516       C1416   1.540       .  S
C516       C1414   1.542   1_545  S
C516        H522   1.110       .  S
C517        H523   1.086       .  S
C517        C518   1.361       .  D
C518       C1751   1.479       .  S
C518       C1412   1.542       .  S
C519        H524   1.087       .  S
C519        C520   1.365       .  D
C520       C1412   1.537       .  S
C520       C1778   1.478       .  S
In525       O527   2.257       .  S
In525       O528   2.278       .  S
In525       O536   2.231       .  S
In525       O530   2.250       .  S
In525       O532   2.242       .  S
In525       O533   2.257       .  S
In525       O534   2.286       .  S
In525       O537   2.241       .  S
C526        O532   1.257       .  A
C526        O534   1.262       .  A
C526        C544   1.474       .  S
O527        C535   1.257       .  A
O528        C535   1.258       .  A
C529        O536   1.262       .  A
C529        O530   1.263       .  A
C529        C847   1.468       .  S
C531        O533   1.261       .  A
C531        O537   1.259       .  A
C535        C737   1.472       .  S
In538       O540   2.258       .  S
In538       O541   2.268       .  S
In538       O549   2.245       .  S
In538       O543   2.225       .  S
In538       O545   2.251       .  S
In538       O546   2.291       .  S
In538       O547   2.263       .  S
In538       O550   2.250       .  S
C539        O545   1.258       .  A
C539        O547   1.261       .  A
O540        C548   1.259       .  A
O541        C548   1.260       .  A
C542        O549   1.264       .  A
C542        O543   1.261       .  A
C542        C843   1.465       .  S
C544        O546   1.260       .  A
C544        O550   1.255       .  A
C548       C1646   1.471       .  S
C551        C552   1.532       .  S
C551        C557   1.538       .  S
C551        C555   1.533       .  S
C551        C834   1.517       .  S
C552        H559   1.087       .  S
C552        C553   1.366       .  D
C553        C554   1.538       .  S
C553        C829   1.478       .  S
C554        C558   1.539       .  S
C554        C556   1.543       .  S
C554        H560   1.110       .  S
C555        H561   1.087       .  S
C555        C556   1.360       .  D
C556        C820   1.481       .  S
C557        H562   1.084       .  S
C557        C558   1.367       .  D
C558        C848   1.481       .  S
C563        C564   1.539       .  S
C563        C569   1.531       .  S
C563        C567   1.534       .  S
C563        C837   1.520       .  S
C564        H571   1.078       .  S
C564        C565   1.365       .  D
C565       C1462   1.536       .  S
C565       C1740   1.483       .  S
C566       C1461   1.534   1_545  S
C566       C1466   1.533   1_545  S
C566       C1464   1.541   1_545  S
C566        H572   1.110       .  S
C567        H573   1.086       .  S
C567        C568   1.365       .  D
C568       C1702   1.481       .  S
C568       C1462   1.544       .  S
C569        H574   1.086       .  S
C569        C570   1.367       .  D
C570       C1462   1.538       .  S
C570       C1711   1.481       .  S
In575       O577   2.247       .  S
In575       O578   2.244       .  S
In575       O586   2.243       .  S
In575       O580   2.248       .  S
In575       O582   2.255       .  S
In575       O583   2.263       .  S
In575       O584   2.256       .  S
In575       O587   2.250       .  S
C576        O582   1.258       .  A
C576        O584   1.259       .  A
O577        C585   1.262       .  A
O578        C585   1.263       .  A
C579        O586   1.259       .  A
C579        O580   1.262       .  A
C579        C830   1.468       .  S
C581        O583   1.259       .  A
C581        O587   1.257       .  A
C581        C589   1.466       .  S
C585        C700   1.465       .  S
In588       O590   2.258       .  S
In588       O591   2.245       .  S
In588       O599   2.229       .  S
In588       O593   2.248       .  S
In588       O595   2.253       .  S
In588       O596   2.245       .  S
In588       O597   2.264       .  S
In588       O600   2.250       .  S
C589        O595   1.257       .  A
C589        O597   1.258       .  A
O590        C598   1.261       .  A
O591        C598   1.262       .  A
C592        O599   1.261       .  A
C592        O593   1.262       .  A
C592        C816   1.467       .  S
C594        O596   1.258       .  A
C594        O600   1.257       .  A
C598       C1583   1.469   1_545  S
In601       O603   2.259       .  S
In601       O604   2.273       .  S
In601       O612   2.223       .  S
In601       O606   2.247       .  S
In601       O608   2.241       .  S
In601       O609   2.249       .  S
In601       O610   2.287       .  S
In601       O613   2.252       .  S
C602        O608   1.255       .  A
C602        O610   1.262       .  A
C602        C620   1.472       .  S
C605        O612   1.262       .  A
C605        O606   1.263       .  A
C605        C802   1.467       .  S
C607        O609   1.260       .  A
C607        O613   1.259       .  A
C607        C733   1.464       .  S
In614      O1512   2.257       .  S
In614       O625   2.264       .  S
In614       O619   2.223       .  S
In614       O621   2.251       .  S
In614       O622   2.273       .  S
In614       O623   2.259       .  S
In614       O626   2.247       .  S
C615        O621   1.256       .  A
C615        O623   1.259       .  A
C615        C741   1.464       .  S
O616      In1510   2.247   1_545  S
O616       C1520   1.255   1_545  A
C618        O625   1.264       .  A
C618        O619   1.259       .  A
C618        C797   1.469       .  S
C620        O622   1.261       .  A
C620        O626   1.260       .  A
C624       O1512   1.258       .  A
C624        C920   1.472       .  S
In627       O629   2.247       .  S
In627       O638   2.271       .  S
In627       O632   2.229       .  S
In627       O634   2.242       .  S
In627       O635   2.264       .  S
In627       O636   2.254       .  S
In627       O639   2.250       .  S
C628        O634   1.257       .  A
C628        O636   1.260       .  A
C628        C691   1.461       .  S
O629        C637   1.258       .  A
C631        O638   1.263       .  A
C631        O632   1.257       .  A
C631        C793   1.472       .  S
C633        O635   1.262       .  A
C633        O639   1.261       .  A
C633        C641   1.473       .  S
In640       O642   2.268       .  S
In640       O643   2.264       .  S
In640      O1547   2.230       .  S
In640       O645   2.256       .  S
In640       O647   2.251       .  S
In640       O648   2.253       .  S
In640       O649   2.272       .  S
In640       O652   2.256       .  S
C641        O647   1.258       .  A
C641        O649   1.262       .  A
C644       O1547   1.262       .  A
C644        O645   1.261       .  A
C644       C1686   1.473       .  S
C646        O648   1.259       .  A
C646        O652   1.257       .  A
C646        C683   1.465       .  S
C650       C1394   1.464       .  S
O651      In1536   2.227       .  S
O651       C1540   1.261       .  A
C653        C654   1.540   1_455  S
C653        C659   1.533       .  S
C653        C657   1.532       .  S
C653        C780   1.524       .  S
C654        H661   1.080       .  S
C654        C655   1.367       .  D
C655        C656   1.537   1_655  S
C655        C798   1.484   1_545  S
C656        C660   1.539       .  S
C656        C658   1.544       .  S
C656       H1558   1.111   1_545  S
C657        H663   1.086       .  S
C657        C658   1.364       .  D
C658        C852   1.483       .  S
C659        H664   1.086       .  S
C659        C660   1.369       .  D
C660        C789   1.483   1_545  S
H662       C1552   1.111       .  S
C665        C666   1.532       .  S
C665        C671   1.539   1_455  S
C665        C669   1.534       .  S
C665        C783   1.524       .  S
C666        H673   1.086       .  S
C666        C667   1.369       .  D
C667        C668   1.542       .  S
C667        C794   1.486       .  S
C668        C672   1.538   1_455  S
C668        C670   1.543       .  S
C668        H674   1.111       .  S
C669        H675   1.087       .  S
C669        C670   1.363       .  D
C670        C865   1.479       .  S
C671        H676   1.080       .  S
C671        C672   1.366       .  D
C672        C801   1.485       .  S
In677       O679   2.258       .  S
In677       O680   2.259       .  S
In677      O1584   2.232       .  S
In677       O682   2.223       .  S
In677       O684   2.242       .  S
In677       O685   2.257       .  S
In677       O686   2.281       .  S
In677       O689   2.245       .  S
C678        O684   1.254       .  A
C678        O686   1.260       .  A
C678        C696   1.469       .  S
O679        C687   1.258       .  A
O680        C687   1.259       .  A
C681       O1584   1.263       .  A
C681        O682   1.262       .  A
C681       C1671   1.463       .  S
C683        O685   1.261       .  A
C683        O689   1.258       .  A
C687       C1494   1.467       .  S
O688      In1573   2.227       .  S
O688       C1577   1.259       .  A
In690       O692   2.242       .  S
In690       O693   2.246       .  S
In690       O701   2.254       .  S
In690       O695   2.243       .  S
In690       O697   2.255       .  S
In690       O698   2.278       .  S
In690       O699   2.245       .  S
In690       O702   2.247       .  S
C691        O697   1.257       .  A
C691        O699   1.257       .  A
O692        C700   1.262       .  A
O693        C700   1.264       .  A
C694        O701   1.261       .  A
C694        O695   1.261       .  A
C694        C771   1.471       .  S
C696        O698   1.258       .  A
C696        O702   1.256       .  A
C703        C704   1.542       .  S
C703        C709   1.532       .  S
C703        C707   1.534       .  S
C703        C762   1.518       .  S
C704        H711   1.082       .  S
C704        C705   1.367       .  D
C705        C706   1.536       .  S
C705        C772   1.476       .  S
C706        C710   1.540       .  S
C706        C708   1.542       .  S
C706        H712   1.111       .  S
C707        H713   1.086       .  S
C707        C708   1.362       .  D
C708        C823   1.484       .  S
C709        H714   1.086       .  S
C709        C710   1.366       .  D
C710        C758   1.482       .  S
C715        C716   1.533       .  S
C715        C721   1.539       .  S
C715        C719   1.532       .  S
C715        C765   1.520       .  S
C716        H723   1.086       .  S
C716        C717   1.367       .  D
C717        C718   1.538       .  S
C717        C753   1.479       .  S
C718        C722   1.535       .  S
C718        C720   1.545       .  S
C718       H1620   1.111   1_545  S
C719        H725   1.086       .  S
C719        C720   1.363       .  D
C720        C809   1.484       .  S
C721        H726   1.082       .  S
C721        C722   1.367       .  D
C722        C776   1.478   1_545  S
H724       C1614   1.111       .  S
In727       O729   2.253       .  S
In727       O730   2.270       .  S
In727       O738   2.238       .  S
In727       O732   2.249       .  S
In727       O734   2.247       .  S
In727       O735   2.253       .  S
In727       O736   2.297       .  S
In727       O739   2.244       .  S
C728        O734   1.255       .  A
C728        O736   1.261       .  A
C728        C746   1.477       .  S
O729        C737   1.260       .  A
O730        C737   1.261       .  A
C731        O738   1.261       .  A
C731        O732   1.263       .  A
C731        C757   1.470       .  S
C733        O735   1.260       .  A
C733        O739   1.258       .  A
In740      O1638   2.272       .  S
In740       O743   2.266       .  S
In740       O751   2.257       .  S
In740       O745   2.226       .  S
In740       O747   2.247       .  S
In740       O748   2.292       .  S
In740       O749   2.253       .  S
In740       O752   2.249       .  S
C741        O747   1.258       .  A
C741        O749   1.261       .  A
O742      In1636   2.266       .  S
O742       C1646   1.260   1_565  A
O743        C750   1.261       .  A
C744        O751   1.264       .  A
C744        O745   1.260       .  A
C744        C754   1.468       .  S
C746        O748   1.261       .  A
C746        O752   1.257       .  A
C750       O1638   1.259       .  A
C750       C1444   1.477       .  S
C753        H755   1.086   1_545  S
C753       C1650   1.342       .  D
C754        H756   1.086       .  S
C754       C1649   1.344       .  D
C757        H759   1.086       .  S
C757        C758   1.344       .  D
C758        H760   1.086       .  S
C761        C762   1.408       .  A
C761        C766   1.398       .  A
C761        H767   1.078       .  S
C762        C763   1.405       .  A
C763        C764   1.388       .  A
C763        H768   1.083       .  S
C764        C765   1.404       .  A
C764        H769   1.084       .  S
C765        C766   1.409       .  A
C766        H770   1.077       .  S
C771        H773   1.087       .  S
C771        C772   1.341       .  D
C772        H774   1.086       .  S
C775       C1577   1.468   1_545  S
C775       H1673   1.087       .  S
C775        C776   1.341   1_545  D
C776        H778   1.086       .  S
H777       C1671   1.086       .  S
C779        C780   1.408   1_655  A
C779        C784   1.395       .  A
C779        H785   1.076       .  S
C780        C781   1.406       .  A
C781        C782   1.394       .  A
C781        H786   1.083       .  S
C782        C783   1.406       .  A
C782        H787   1.083       .  S
C783        C784   1.409   1_455  A
C784        H788   1.076       .  S
C789        H791   1.086       .  S
C789        C790   1.343   1_565  D
C790       C1540   1.470   1_545  S
C790       H1688   1.086       .  S
H792       C1686   1.086       .  S
C793        H795   1.086       .  S
C793        C794   1.344       .  D
C794        H796   1.086       .  S
C797        H799   1.088       .  S
C797       C1694   1.342       .  D
C798        H800   1.086       .  S
C798       C1693   1.343   1_565  D
C801        H803   1.086       .  S
C801        C802   1.346       .  D
C802        H804   1.086       .  S
C805        C806   1.402   1_545  A
C805        H811   1.082       .  S
C806       C1464   1.486       .  S
C806        C807   1.409       .  A
C807        H812   1.082       .  S
C808        C809   1.401   1_565  A
C808        H813   1.083       .  S
C809        C810   1.408       .  A
C810        H814   1.083       .  S
C815       H1713   1.086       .  S
C815        C816   1.340       .  D
C815       C1466   1.471   1_545  S
C816        H818   1.087       .  S
H817       C1711   1.086       .  S
C819        C820   1.399       .  A
C819        H825   1.083       .  S
C820        C821   1.410       .  A
C821        H826   1.083       .  S
C822        C823   1.402       .  A
C822        H827   1.083       .  S
C823        C824   1.408       .  A
C824        H828   1.083       .  S
C829        H831   1.086       .  S
C829        C830   1.341       .  D
C830        H832   1.087       .  S
C833        C834   1.404       .  A
C833        C838   1.392       .  A
C833        H839   1.084       .  S
C834        C835   1.408       .  A
C835        C836   1.392       .  A
C835        H840   1.082       .  S
C836        C837   1.404       .  A
C836        H841   1.085       .  S
C837        C838   1.410       .  A
C838        H842   1.069       .  S
C843        H845   1.086   1_545  S
C843        C844   1.341       .  D
C844       H1742   1.086       .  S
C844       C1461   1.478   1_545  S
H846       C1740   1.086       .  S
C847        H849   1.087       .  S
C847        C848   1.344       .  D
C848        H850   1.086       .  S
C851       C1748   1.400       .  A
C851        C856   1.397       .  A
C851        H857   1.083   1_455  S
C852       C1747   1.402   1_545  A
C852        C853   1.407       .  A
C853        C854   1.395       .  A
C853        H858   1.083       .  S
C854        C855   1.401       .  A
C854        H859   1.082       .  S
C855       C1414   1.484   1_545  S
C855       C1752   1.409   1_545  A
C856       C1751   1.409       .  A
C856        H860   1.083   1_455  S
C861        C862   1.409       .  A
C861        C866   1.397       .  A
C861        H867   1.082   1_455  S
C862        C863   1.402       .  A
C863        C864   1.397       .  A
C863        H868   1.082       .  S
C864        C865   1.406       .  A
C864        H869   1.083       .  S
C865        C866   1.400       .  A
C866        H870   1.083   1_455  S
C871        C872   1.409       .  A
C871        C876   1.396   1_455  A
C871        H877   1.077   1_455  S
C872        C873   1.404       .  A
C873        C874   1.387       .  A
C873        H878   1.083       .  S
C874        C875   1.405       .  A
C874        H879   1.084       .  S
C875        C876   1.406   1_455  A
C876        H880   1.077       .  S
C881        H883   1.087   1_545  S
C881        C882   1.343       .  D
C882        H884   1.086       .  S
C882       C1416   1.481       .  S
C885        H887   1.088       .  S
C885        C886   1.339       .  D
C886        H888   1.086       .  S
C889        H891   1.087       .  S
C889        C890   1.340       .  D
C890        H892   1.086       .  S
C890       C1411   1.478       .  S
C893        H895   1.087       .  S
C893        C894   1.347       .  D
C894        H896   1.086       .  S
In897       O899   2.258       .  S
In897       O900   2.256       .  S
In897       O908   2.221       .  S
In897       O902   2.268       .  S
In897       O904   2.246       .  S
In897       O905   2.256       .  S
In897       O906   2.267       .  S
In897       O909   2.244       .  S
C898        O904   1.260       .  A
C898        O906   1.261       .  A
C898        C916   1.470       .  S
O899        C907   1.257       .  A
O900        C907   1.262       .  A
C901        O908   1.258       .  A
C901        O902   1.263       .  A
C901       C1341   1.468       .  S
C903        O905   1.259       .  A
C903        O909   1.257       .  A
C903        C979   1.463       .  S
C907       C1059   1.469       .  S
In910       O912   2.261       .  S
In910       O913   2.262       .  S
In910       O921   2.253       .  S
In910       O915   2.231       .  S
In910       O917   2.254       .  S
In910       O918   2.271       .  S
In910       O919   2.259       .  S
In910       O922   2.246       .  S
C911        O917   1.257       .  A
C911        O919   1.260       .  A
C911        C987   1.467       .  S
O912        C920   1.259       .  A
O913        C920   1.262       .  A
C914        O921   1.262       .  A
C914        O915   1.263       .  A
C914       C1337   1.475       .  S
C916        O918   1.261       .  A
C916        O922   1.258       .  A
In923       O925   2.250       .  S
In923       O926   2.262       .  S
In923       O934   2.252       .  S
In923       O928   2.233       .  S
In923       O930   2.246       .  S
In923       O931   2.278       .  S
In923       O932   2.256       .  S
In923       O935   2.248       .  S
C924        O930   1.258       .  A
C924        O932   1.258       .  A
C924       C1024   1.463       .  S
O925        C933   1.258       .  A
O926        C933   1.264       .  A
C927        O934   1.263       .  A
C927        O928   1.264       .  A
C927       C1334   1.476       .  S
C929        O931   1.262       .  A
C929        O935   1.258       .  A
C929        C937   1.474       .  S
C933       C1533   1.470       .  S
In936       O938   2.273       .  S
In936       O939   2.260       .  S
In936       O947   2.228       .  S
In936       O941   2.261       .  S
In936       O943   2.249       .  S
In936       O944   2.262       .  S
In936       O945   2.273       .  S
In936       O948   2.241       .  S
C937        O943   1.260       .  A
C937        O945   1.262       .  A
O938        C946   1.261       .  A
O939        C946   1.257       .  A
C940        O947   1.259       .  A
C940        O941   1.263       .  A
C940       C1329   1.468       .  S
C942        O944   1.260       .  A
C942        O948   1.256       .  A
C942       C1042   1.463       .  S
C949        C950   1.532       .  S
C949        C955   1.536   1_455  S
C949        C953   1.532       .  S
C949       C1320   1.520       .  S
C950        H957   1.087       .  S
C950        C951   1.361       .  D
C951        C952   1.542       .  S
C951       C1333   1.475       .  S
C952        C956   1.541   1_455  S
C952        C954   1.547       .  S
C952        H958   1.110       .  S
C953        H959   1.086       .  S
C953        C954   1.365       .  D
C954       C1310   1.488       .  S
C955        H960   1.082       .  S
C955        C956   1.367       .  D
C956       C1342   1.482       .  S
C961        C962   1.541   1_455  S
C961        C967   1.533       .  S
C961        C965   1.535       .  S
C961       C1323   1.519       .  S
C962        H969   1.082       .  S
C962        C963   1.366   1_565  D
C964        H970   1.110       .  S
C965        H971   1.086       .  S
C965        C966   1.365       .  D
C967        H972   1.086       .  S
C967        C968   1.365   1_565  D
In973       O975   2.265       .  S
In973       O976   2.269       .  S
In973       O984   2.224       .  S
In973       O978   2.255       .  S
In973       O980   2.253       .  S
In973       O981   2.243       .  S
In973       O982   2.285       .  S
In973       O985   2.249       .  S
C974        O980   1.257       .  A
C974        O982   1.262       .  A
C974        C992   1.477       .  S
O975        C983   1.260       .  A
O976        C983   1.259       .  A
C977        O984   1.261       .  A
C977        O978   1.264       .  A
C977       C1295   1.469       .  S
C979        O981   1.261       .  A
C979        O985   1.260       .  A
C983       C1185   1.474       .  S
In986       O988   2.261       .  S
In986       O989   2.278       .  S
In986       O997   2.257       .  S
In986       O991   2.215       .  S
In986       O993   2.251       .  S
In986       O994   2.277       .  S
In986       O995   2.269       .  S
In986       O998   2.254       .  S
C987        O993   1.255       .  A
C987        O995   1.260       .  A
O988        C996   1.256       .  A
O989        C996   1.262       .  A
C990        O997   1.265       .  A
C990        O991   1.259       .  A
C990       C1291   1.464       .  S
C992        O994   1.262       .  A
C992        O998   1.260       .  A
C999       C1000   1.535       .  S
C999       C1005   1.539       .  S
C999       C1003   1.536       .  S
C999       C1282   1.520       .  S
C1000      H1007   1.086       .  S
C1000      C1001   1.367       .  D
C1001      C1002   1.536       .  S
C1001      C1277   1.477       .  S
C1002      C1006   1.539       .  S
C1002      C1004   1.540       .  S
C1002      H1008   1.111       .  S
C1003      H1009   1.087       .  S
C1003      C1004   1.360       .  D
C1004      C1268   1.480       .  S
C1005      H1010   1.080       .  S
C1005      C1006   1.368       .  D
C1006      C1296   1.483       .  S
C1011      C1012   1.540       .  S
C1011      C1017   1.531       .  S
C1011      C1015   1.534       .  S
C1011      C1285   1.520       .  S
C1012      H1019   1.082       .  S
C1012      C1013   1.365       .  D
C1014      H1020   1.111       .  S
C1015      H1021   1.086       .  S
C1015      C1016   1.364       .  D
C1017      H1022   1.086       .  S
C1017      C1018   1.366       .  D
In1023     O1025   2.252       .  S
In1023     O1026   2.239       .  S
In1023     O1034   2.240       .  S
In1023     O1028   2.248       .  S
In1023     O1030   2.256       .  S
In1023     O1031   2.261       .  S
In1023     O1032   2.243       .  S
In1023     O1035   2.255       .  S
C1024      O1030   1.259       .  A
C1024      O1032   1.258       .  A
O1025      C1033   1.262       .  A
O1026      C1033   1.263       .  A
C1027      O1034   1.259       .  A
C1027      O1028   1.263       .  A
C1027      C1278   1.468       .  S
C1029      O1031   1.258       .  A
C1029      O1035   1.258       .  A
C1029      C1037   1.468       .  S
C1033      C1148   1.465       .  S
In1036     O1038   2.256       .  S
In1036     O1039   2.246       .  S
In1036     O1047   2.229       .  S
In1036     O1041   2.247       .  S
In1036     O1043   2.256       .  S
In1036     O1044   2.245       .  S
In1036     O1045   2.261       .  S
In1036     O1048   2.254       .  S
C1037      O1043   1.257       .  A
C1037      O1045   1.259       .  A
O1038      C1046   1.261       .  A
O1039      C1046   1.263       .  A
C1040      O1047   1.262       .  A
C1040      O1041   1.262       .  A
C1040      C1264   1.467       .  S
C1042      O1044   1.258       .  A
C1042      O1048   1.258       .  A
In1049     O1051   2.260       .  S
In1049     O1052   2.277       .  S
In1049     O1060   2.235       .  S
In1049     O1054   2.251       .  S
In1049     O1056   2.243       .  S
In1049     O1057   2.268       .  S
In1049     O1058   2.295       .  S
In1049     O1061   2.254       .  S
C1050      O1056   1.254       .  A
C1050      O1058   1.260       .  A
C1050      C1068   1.473       .  S
O1051      C1507   1.257       .  A
O1052      C1507   1.261       .  A
C1053      O1060   1.264       .  A
C1053      O1054   1.264       .  A
C1053      C1250   1.471       .  S
C1055      O1057   1.260       .  A
C1055      O1061   1.258       .  A
C1055      C1181   1.469       .  S
C1059      O1499   1.261       .  A
C1059      O1500   1.254       .  A
In1062     O1513   2.262       .  S
In1062     O1073   2.269       .  S
In1062     O1067   2.222       .  S
In1062     O1069   2.242       .  S
In1062     O1070   2.281       .  S
In1062     O1071   2.256       .  S
In1062     O1074   2.238       .  S
C1063      O1069   1.257       .  A
C1063      O1071   1.262       .  A
C1063      C1189   1.464       .  S
O1065     In1510   2.277       .  S
O1065      C1520   1.261       .  A
C1066      O1073   1.264       .  A
C1066      O1067   1.257       .  A
C1066      C1245   1.468   1_565  S
C1068      O1070   1.263       .  A
C1068      O1074   1.260       .  A
C1072      O1513   1.262       .  A
In1075     O1077   2.258       .  S
In1075     O1526   2.235   1_554  S
In1075     O1086   2.251       .  S
In1075     O1080   2.264       .  S
In1075     O1082   2.257       .  S
In1075     O1083   2.266       .  S
In1075     O1084   2.269       .  S
In1075     O1087   2.259       .  S
C1076      O1082   1.257       .  A
C1076      O1084   1.258       .  A
C1076      C1139   1.470       .  S
O1077      C1085   1.264   1_554  A
O1078     In1523   2.268       .  S
O1078      C1533   1.262       .  A
C1079      O1086   1.258       .  A
C1079      O1080   1.261       .  A
C1079      C1241   1.473       .  S
C1081      O1083   1.257       .  A
C1081      O1087   1.257       .  A
C1081      C1089   1.468       .  S
C1085      O1526   1.263       .  A
C1085      C1381   1.467       .  S
In1088     O1090   2.258   1_565  S
In1088     O1091   2.241   1_554  S
In1088     O1093   2.238       .  S
In1088     O1095   2.256       .  S
In1088     O1096   2.248       .  S
In1088     O1097   2.267       .  S
In1088     O1100   2.255       .  S
C1089      O1095   1.256       .  A
C1089      O1097   1.258       .  A
O1090      C1546   1.261   1_544  A
O1091      C1546   1.263       .  A
C1092      O1093   1.261       .  A
C1094      O1096   1.258       .  A
C1094      O1100   1.257       .  A
C1094      C1131   1.462       .  S
C1098      O1538   1.260       .  A
C1098      O1539   1.258       .  A
C1101      C1102   1.542   1_455  S
C1101      C1107   1.532       .  S
C1101      C1105   1.534       .  S
C1101      C1228   1.522       .  S
C1102      H1109   1.081       .  S
C1102      C1103   1.370       .  D
C1103      C1104   1.537   1_655  S
C1103      C1246   1.484       .  S
C1104      C1108   1.534       .  S
C1104      C1106   1.544       .  S
C1105      H1111   1.086       .  S
C1105      C1106   1.362       .  D
C1106      C1300   1.483       .  S
C1107      H1112   1.086       .  S
C1107      C1108   1.364       .  D
C1108      C1237   1.474       .  S
C1113      C1114   1.532       .  S
C1113      C1119   1.540   1_455  S
C1113      C1117   1.538       .  S
C1113      C1231   1.524       .  S
C1114      H1121   1.086       .  S
C1114      C1115   1.367       .  D
C1115      C1116   1.542       .  S
C1115      C1242   1.485       .  S
C1116      C1120   1.538   1_455  S
C1116      C1118   1.542       .  S
C1116      H1122   1.111       .  S
C1117      H1123   1.086       .  S
C1117      C1118   1.364       .  D
C1118      C1313   1.484       .  S
C1119      H1124   1.080       .  S
C1119      C1120   1.367       .  D
C1120      C1249   1.484       .  S
In1125     O1127   2.238       .  S
In1125     O1128   2.264       .  S
In1125     O1130   2.228       .  S
In1125     O1132   2.240       .  S
In1125     O1133   2.254       .  S
In1125     O1134   2.280       .  S
In1125     O1137   2.241       .  S
C1126      O1132   1.255       .  A
C1126      O1134   1.260       .  A
C1126      C1144   1.469       .  S
O1127      C1135   1.257   1_565  A
O1128      C1135   1.261   1_565  A
C1129      O1130   1.263       .  A
C1131      O1133   1.260       .  A
C1131      O1137   1.258       .  A
In1138     O1140   2.241       .  S
In1138     O1141   2.253       .  S
In1138     O1149   2.250       .  S
In1138     O1143   2.257       .  S
In1138     O1145   2.263       .  S
In1138     O1146   2.277       .  S
In1138     O1147   2.258       .  S
In1138     O1150   2.247       .  S
C1139      O1145   1.258       .  A
C1139      O1147   1.259       .  A
O1140      C1148   1.261       .  A
O1141      C1148   1.264       .  A
C1142      O1149   1.259       .  A
C1142      O1143   1.261       .  A
C1142      C1219   1.472       .  S
C1144      O1146   1.259       .  A
C1144      O1150   1.256       .  A
C1151      C1152   1.542       .  S
C1151      C1157   1.533       .  S
C1151      C1155   1.539       .  S
C1151      C1210   1.524       .  S
C1152      H1159   1.082       .  S
C1152      C1153   1.367       .  D
C1153      C1154   1.536       .  S
C1153      C1220   1.480       .  S
C1154      C1158   1.536       .  S
C1154      C1156   1.539       .  S
C1154      H1160   1.110       .  S
C1155      H1161   1.086       .  S
C1155      C1156   1.366       .  D
C1156      C1271   1.486       .  S
C1157      H1162   1.086       .  S
C1157      C1158   1.366       .  D
C1158      C1206   1.479       .  S
C1163      C1164   1.535       .  S
C1163      C1169   1.541       .  S
C1163      C1167   1.533       .  S
C1163      C1213   1.525       .  S
C1164      H1171   1.086       .  S
C1164      C1165   1.368       .  D
C1165      C1166   1.536       .  S
C1165      C1201   1.480       .  S
C1166      C1170   1.535       .  S
C1166      C1168   1.542       .  S
C1167      H1173   1.087       .  S
C1167      C1168   1.362       .  D
C1168      C1257   1.480       .  S
C1169      H1174   1.081       .  S
C1169      C1170   1.368       .  D
C1170      C1224   1.482       .  S
In1175     O1177   2.267       .  S
In1175     O1178   2.271       .  S
In1175     O1186   2.232       .  S
In1175     O1180   2.240       .  S
In1175     O1182   2.255       .  S
In1175     O1183   2.253       .  S
In1175     O1184   2.288       .  S
In1175     O1187   2.265       .  S
C1176      O1182   1.256       .  A
C1176      O1184   1.261       .  A
C1176      C1194   1.476       .  S
O1177      C1185   1.258       .  A
O1178      C1185   1.259       .  A
C1179      O1186   1.263       .  A
C1179      O1180   1.264       .  A
C1179      C1205   1.468       .  S
C1181      O1183   1.259       .  A
C1181      O1187   1.259       .  A
In1188     O1191   2.267       .  S
In1188     O1199   2.267       .  S
In1188     O1193   2.222       .  S
In1188     O1195   2.248       .  S
In1188     O1196   2.276       .  S
In1188     O1197   2.256       .  S
In1188     O1200   2.250       .  S
C1189      O1195   1.256       .  A
C1189      O1197   1.261       .  A
O1191      C1198   1.263       .  A
C1192      O1199   1.263       .  A
C1192      O1193   1.256       .  A
C1192      C1202   1.468   1_565  S
C1194      O1196   1.263       .  A
C1194      O1200   1.261       .  A
C1201      H1203   1.086       .  S
C1202      H1204   1.087       .  S
C1205      H1207   1.087       .  S
C1205      C1206   1.343       .  D
C1206      H1208   1.086       .  S
C1209      C1210   1.409       .  A
C1209      C1214   1.399       .  A
C1209      H1215   1.077       .  S
C1210      C1211   1.406       .  A
C1211      C1212   1.392       .  A
C1211      H1216   1.083       .  S
C1212      C1213   1.406       .  A
C1212      H1217   1.083       .  S
C1213      C1214   1.409       .  A
C1214      H1218   1.077       .  S
C1219      H1221   1.087       .  S
C1219      C1220   1.341       .  D
C1220      H1222   1.086       .  S
C1223      C1224   1.342       .  D
C1224      H1226   1.086       .  S
C1227      C1228   1.406   1_655  A
C1227      C1232   1.397       .  A
C1227      H1233   1.077       .  S
C1228      C1229   1.407       .  A
C1229      C1230   1.393       .  A
C1229      H1234   1.083       .  S
C1230      C1231   1.406       .  A
C1230      H1235   1.083       .  S
C1231      C1232   1.410   1_455  A
C1232      H1236   1.076       .  S
C1237      H1239   1.086       .  S
C1237      C1238   1.340       .  D
C1241      H1243   1.087       .  S
C1241      C1242   1.344       .  D
C1242      H1244   1.086       .  S
C1245      H1247   1.087       .  S
C1246      H1248   1.086       .  S
C1249      H1251   1.086       .  S
C1249      C1250   1.346       .  D
C1250      H1252   1.086       .  S
C1253      C1254   1.402       .  A
C1253      C1706   1.395       .  A
C1253      H1259   1.083       .  S
C1254      C1255   1.406       .  A
C1255      C1704   1.396       .  A
C1255      H1260   1.083       .  S
C1256      C1703   1.397   1_554  A
C1256      C1257   1.400       .  A
C1256      H1261   1.083       .  S
C1257      C1258   1.407       .  A
C1258      C1701   1.396   1_554  A
C1258      H1262   1.083       .  S
C1263      C1264   1.337       .  D
C1264      H1266   1.087       .  S
C1267      C1268   1.400       .  A
C1267      C1720   1.393       .  A
C1267      H1273   1.083       .  S
C1268      C1269   1.409       .  A
C1269      C1718   1.399       .  A
C1269      H1274   1.083       .  S
C1270      C1717   1.398   1_554  A
C1270      C1271   1.404       .  A
C1270      H1275   1.082       .  S
C1271      C1272   1.406   1_554  A
C1272      C1715   1.397       .  A
C1272      H1276   1.082   1_556  S
C1277      H1279   1.086       .  S
C1277      C1278   1.339       .  D
C1278      H1280   1.087       .  S
C1281      C1282   1.408       .  A
C1281      C1286   1.396       .  A
C1281      H1287   1.076       .  S
C1282      C1283   1.406       .  A
C1283      C1284   1.391       .  A
C1283      H1288   1.084       .  S
C1284      C1285   1.406       .  A
C1284      H1289   1.083       .  S
C1285      C1286   1.408       .  A
C1286      H1290   1.077       .  S
C1291      H1293   1.087       .  S
C1291      C1292   1.339       .  D
C1295      H1297   1.087       .  S
C1295      C1296   1.344       .  D
C1296      H1298   1.086       .  S
C1299      C1304   1.395   1_455  A
C1299      H1305   1.083   1_455  S
C1300      C1301   1.409       .  A
C1301      C1302   1.398       .  A
C1301      H1306   1.083       .  S
C1302      C1303   1.401       .  A
C1302      H1307   1.083       .  S
C1304      H1308   1.083       .  S
C1309      C1310   1.409   1_655  A
C1309      C1314   1.397   1_655  A
C1309      H1315   1.082       .  S
C1310      C1311   1.403       .  A
C1311      C1312   1.399       .  A
C1311      H1316   1.082       .  S
C1312      C1313   1.407       .  A
C1312      H1317   1.083       .  S
C1313      C1314   1.401       .  A
C1314      H1318   1.083   1_455  S
C1319      C1320   1.409   1_655  A
C1319      C1324   1.398       .  A
C1319      H1325   1.077       .  S
C1320      C1321   1.405       .  A
C1321      C1322   1.388       .  A
C1321      H1326   1.083       .  S
C1322      C1323   1.405       .  A
C1322      H1327   1.083       .  S
C1323      C1324   1.408   1_455  A
C1324      H1328   1.077       .  S
C1329      H1331   1.087       .  S
C1329      C1330   1.344       .  D
C1330      H1332   1.086       .  S
C1333      H1335   1.087       .  S
C1333      C1334   1.339       .  D
C1334      H1336   1.086       .  S
C1337      H1339   1.086       .  S
C1337      C1338   1.338       .  D
C1338      H1340   1.087       .  S
C1341      H1343   1.087       .  S
C1341      C1342   1.344       .  D
C1342      H1344   1.086       .  S
In1345     O1347   2.263       .  S
In1345     O1348   2.268       .  S
In1345     O1356   2.233       .  S
In1345     O1350   2.258       .  S
In1345     O1352   2.246       .  S
In1345     O1353   2.256       .  S
In1345     O1354   2.280       .  S
In1345     O1357   2.250       .  S
C1346      O1352   1.256       .  A
C1346      O1354   1.260       .  A
C1346      C1364   1.471       .  S
O1347      C1355   1.261       .  A
O1348      C1355   1.259       .  A
C1349      O1356   1.261       .  A
C1349      O1350   1.263       .  A
C1349      C1789   1.471       .  S
C1351      O1353   1.260       .  A
C1351      O1357   1.258       .  A
C1351      C1427   1.466       .  S
C1355      C1507   1.474   1_556  S
In1358     O1360   2.267       .  S
In1358     O1361   2.257       .  S
In1358     O1369   2.237       .  S
In1358     O1363   2.239       .  S
In1358     O1365   2.255       .  S
In1358     O1366   2.275       .  S
In1358     O1367   2.258       .  S
In1358     O1370   2.246       .  S
C1359      O1365   1.258       .  A
C1359      O1367   1.259       .  A
C1359      C1435   1.467       .  S
O1360      C1368   1.260       .  A
O1361      C1368   1.262       .  A
C1362      O1369   1.261       .  A
C1362      O1363   1.262       .  A
C1362      C1785   1.466       .  S
C1364      O1366   1.261       .  A
C1364      O1370   1.257       .  A
In1371     O1373   2.233       .  S
In1371     O1374   2.255       .  S
In1371     O1382   2.231       .  S
In1371     O1376   2.263       .  S
In1371     O1378   2.259       .  S
In1371     O1379   2.252       .  S
In1371     O1380   2.261       .  S
In1371     O1383   2.242       .  S
C1372      O1378   1.259       .  A
C1372      O1380   1.260       .  A
C1372      C1472   1.472       .  S
O1373      C1381   1.263       .  A
O1374      C1381   1.265       .  A
C1375      O1382   1.256       .  A
C1375      O1376   1.264       .  A
C1375      C1782   1.468       .  S
C1377      O1379   1.260       .  A
C1377      O1383   1.257       .  A
C1377      C1385   1.461       .  S
In1384     O1386   2.267       .  S
In1384     O1387   2.239       .  S
In1384     O1395   2.225       .  S
In1384     O1389   2.255       .  S
In1384     O1391   2.246       .  S
In1384     O1392   2.243       .  S
In1384     O1393   2.244       .  S
In1384     O1396   2.246       .  S
C1385      O1391   1.260       .  A
C1385      O1393   1.258       .  A
O1386      C1394   1.260       .  A
O1387      C1394   1.255       .  A
C1388      O1395   1.260       .  A
C1388      O1389   1.264       .  A
C1388      C1777   1.468       .  S
C1390      O1392   1.259       .  A
C1390      O1396   1.259       .  A
C1390      C1490   1.460       .  S
C1397      C1398   1.535       .  S
C1397      C1403   1.535   1_455  S
C1397      C1401   1.538       .  S
C1397      C1768   1.522       .  S
C1398      H1405   1.086       .  S
C1398      C1399   1.367       .  D
C1399      C1400   1.536       .  S
C1399      C1781   1.479       .  S
C1400      C1404   1.541   1_455  S
C1400      C1402   1.539       .  S
C1400      H1406   1.110       .  S
C1401      H1407   1.086       .  S
C1401      C1402   1.365       .  D
C1402      C1758   1.482       .  S
C1403      H1408   1.080       .  S
C1403      C1404   1.365       .  D
C1404      C1790   1.486       .  S
C1409      C1410   1.542   1_455  S
C1409      C1415   1.528       .  S
C1409      C1413   1.535       .  S
C1409      C1771   1.517       .  S
C1410      H1417   1.082       .  S
C1410      C1411   1.369   1_565  D
C1412      H1418   1.110       .  S
C1413      H1419   1.086       .  S
C1413      C1414   1.362       .  D
C1415      H1420   1.086       .  S
C1415      C1416   1.365   1_565  D
In1421     O1423   2.257       .  S
In1421     O1424   2.271       .  S
In1421     O1432   2.232       .  S
In1421     O1426   2.245       .  S
In1421     O1428   2.246       .  S
In1421     O1429   2.250       .  S
In1421     O1430   2.294       .  S
In1421     O1433   2.255       .  S
C1422      O1428   1.255       .  A
C1422      O1430   1.260       .  A
C1422      C1440   1.475       .  S
O1423      C1431   1.258       .  A
O1424      C1431   1.258       .  A
C1425      O1432   1.262       .  A
C1425      O1426   1.263       .  A
C1425      C1743   1.468       .  S
C1427      O1429   1.260       .  A
C1427      O1433   1.260       .  A
C1431      C1633   1.469       .  S
In1434     O1436   2.265       .  S
In1434     O1437   2.278       .  S
In1434     O1445   2.246       .  S
In1434     O1439   2.230       .  S
In1434     O1441   2.257       .  S
In1434     O1442   2.296       .  S
In1434     O1443   2.260       .  S
In1434     O1446   2.248       .  S
C1435      O1441   1.257       .  A
C1435      O1443   1.259       .  A
O1436      C1444   1.258       .  A
O1437      C1444   1.261       .  A
C1438      O1445   1.264       .  A
C1438      O1439   1.262       .  A
C1438      C1739   1.467       .  S
C1440      O1442   1.260       .  A
C1440      O1446   1.255       .  A
C1447      C1448   1.536       .  S
C1447      C1453   1.538       .  S
C1447      C1451   1.538       .  S
C1447      C1730   1.523       .  S
C1448      H1455   1.086       .  S
C1448      C1449   1.366       .  D
C1449      C1450   1.535       .  S
C1449      C1725   1.475       .  S
C1450      C1454   1.539       .  S
C1450      C1452   1.540       .  S
C1450      H1456   1.110       .  S
C1451      H1457   1.086       .  S
C1451      C1452   1.365       .  D
C1452      C1716   1.485       .  S
C1453      H1458   1.079       .  S
C1453      C1454   1.366       .  D
C1454      C1744   1.481       .  S
C1459      C1460   1.539       .  S
C1459      C1465   1.534       .  S
C1459      C1463   1.538       .  S
C1459      C1733   1.521       .  S
C1460      H1467   1.081       .  S
C1460      C1461   1.367       .  D
C1462      H1468   1.110       .  S
C1463      H1469   1.086       .  S
C1463      C1464   1.365       .  D
C1465      H1470   1.087       .  S
C1465      C1466   1.363       .  D
In1471     O1473   2.255       .  S
In1471     O1474   2.256       .  S
In1471     O1482   2.244       .  S
In1471     O1476   2.246       .  S
In1471     O1478   2.264       .  S
In1471     O1479   2.278       .  S
In1471     O1480   2.264       .  S
In1471     O1483   2.243       .  S
C1472      O1478   1.258       .  A
C1472      O1480   1.259       .  A
O1473      C1481   1.261       .  A
O1474      C1481   1.263       .  A
C1475      O1482   1.260       .  A
C1475      O1476   1.262       .  A
C1475      C1726   1.470       .  S
C1477      O1479   1.260       .  A
C1477      O1483   1.256       .  A
C1477      C1485   1.468       .  S
C1481      C1596   1.471       .  S
In1484     O1486   2.253       .  S
In1484     O1487   2.249       .  S
In1484     O1495   2.231       .  S
In1484     O1489   2.252       .  S
In1484     O1491   2.242       .  S
In1484     O1492   2.245       .  S
In1484     O1493   2.272       .  S
In1484     O1496   2.242       .  S
C1485      O1491   1.257       .  A
C1485      O1493   1.260       .  A
O1486      C1494   1.261       .  A
O1487      C1494   1.259       .  A
C1488      O1495   1.260       .  A
C1488      O1489   1.264       .  A
C1488      C1712   1.469       .  S
C1490      O1492   1.259       .  A
C1490      O1496   1.259       .  A
In1497     O1499   2.272       .  S
In1497     O1500   2.249       .  S
In1497     O1508   2.211       .  S
In1497     O1502   2.250       .  S
In1497     O1504   2.250       .  S
In1497     O1505   2.239       .  S
In1497     O1506   2.252       .  S
In1497     O1509   2.243       .  S
C1498      O1504   1.261       .  A
C1498      O1506   1.261       .  A
C1498      C1516   1.469       .  S
C1501      O1508   1.259       .  A
C1501      O1502   1.265       .  A
C1501      C1698   1.462       .  S
C1503      O1505   1.260       .  A
C1503      O1509   1.257       .  A
C1503      C1629   1.457       .  S
In1510     O1521   2.266       .  S
In1510     O1515   2.222       .  S
In1510     O1517   2.256       .  S
In1510     O1518   2.256       .  S
In1510     O1519   2.247       .  S
In1510     O1522   2.246       .  S
C1511      O1517   1.259       .  A
C1511      O1519   1.260       .  A
C1511      C1637   1.464       .  S
C1514      O1521   1.263       .  A
C1514      O1515   1.257       .  A
C1514      C1693   1.468   1_565  S
C1516      O1518   1.263       .  A
C1516      O1522   1.261       .  A
In1523     O1525   2.258       .  S
In1523     O1534   2.245       .  S
In1523     O1528   2.215       .  S
In1523     O1530   2.229       .  S
In1523     O1531   2.272       .  S
In1523     O1532   2.254       .  S
In1523     O1535   2.245       .  S
C1524      O1530   1.256       .  A
C1524      O1532   1.262       .  A
C1524      C1587   1.460       .  S
O1525      C1533   1.256       .  A
C1527      O1534   1.264       .  A
C1527      O1528   1.257       .  A
C1527      C1689   1.459       .  S
C1529      O1531   1.263       .  A
C1529      O1535   1.259       .  A
C1529      C1537   1.473       .  S
In1536     O1538   2.259       .  S
In1536     O1539   2.260       .  S
In1536     O1541   2.254       .  S
In1536     O1543   2.253       .  S
In1536     O1544   2.242       .  S
In1536     O1545   2.276       .  S
In1536     O1548   2.252       .  S
C1537      O1543   1.258       .  A
C1537      O1545   1.260       .  A
C1540      O1541   1.265       .  A
C1542      O1544   1.260       .  A
C1542      O1548   1.259       .  A
C1542      C1579   1.463       .  S
C1549      C1550   1.538   1_455  S
C1549      C1555   1.529       .  S
C1549      C1553   1.530       .  S
C1549      C1676   1.515       .  S
C1550      H1557   1.082       .  S
C1550      C1551   1.368   1_655  D
C1551      C1552   1.539       .  S
C1551      C1694   1.480   1_455  S
C1552      C1556   1.543       .  S
C1552      C1554   1.542       .  S
C1553      H1559   1.087       .  S
C1553      C1554   1.361       .  D
C1554      C1748   1.476       .  S
C1555      H1560   1.087       .  S
C1555      C1556   1.360       .  D
C1556      C1685   1.472       .  S
C1561      C1562   1.528       .  S
C1561      C1567   1.536   1_455  S
C1561      C1565   1.531       .  S
C1561      C1679   1.515       .  S
C1562      H1569   1.087       .  S
C1562      C1563   1.363       .  D
C1563      C1564   1.533       .  S
C1563      C1690   1.472       .  S
C1564      C1568   1.534   1_455  S
C1564      C1566   1.543       .  S
C1564      H1570   1.110       .  S
C1565      H1571   1.086       .  S
C1565      C1566   1.365       .  D
C1566      C1761   1.481       .  S
C1567      H1572   1.082       .  S
C1567      C1568   1.368       .  D
C1568      C1697   1.475       .  S
In1573     O1575   2.273       .  S
In1573     O1576   2.250   1_565  S
In1573     O1578   2.255       .  S
In1573     O1580   2.255       .  S
In1573     O1581   2.255       .  S
In1573     O1582   2.254       .  S
In1573     O1585   2.239       .  S
C1574      O1580   1.261       .  A
C1574      O1582   1.261       .  A
C1574      C1592   1.471       .  S
O1575      C1583   1.261       .  A
O1576      C1583   1.256   1_545  A
C1577      O1578   1.264       .  A
C1579      O1581   1.261       .  A
C1579      O1585   1.258       .  A
In1586     O1588   2.257       .  S
In1586     O1589   2.268       .  S
In1586     O1597   2.253       .  S
In1586     O1591   2.228       .  S
In1586     O1593   2.248       .  S
In1586     O1594   2.257       .  S
In1586     O1595   2.238       .  S
In1586     O1598   2.255       .  S
C1587      O1593   1.258       .  A
C1587      O1595   1.260       .  A
O1588      C1596   1.257       .  A
O1589      C1596   1.261       .  A
C1590      O1597   1.264       .  A
C1590      O1591   1.258       .  A
C1590      C1667   1.468       .  S
C1592      O1594   1.262       .  A
C1592      O1598   1.261       .  A
C1599      C1600   1.534       .  S
C1599      C1605   1.535       .  S
C1599      C1603   1.529       .  S
C1599      C1658   1.516       .  S
C1600      H1607   1.086       .  S
C1600      C1601   1.369       .  D
C1601      C1602   1.538       .  S
C1601      C1668   1.478       .  S
C1602      C1606   1.534       .  S
C1602      C1604   1.541       .  S
C1602      H1608   1.111       .  S
C1603      H1609   1.087       .  S
C1603      C1604   1.361       .  D
C1604      C1719   1.477       .  S
C1605      H1610   1.080       .  S
C1605      C1606   1.364       .  D
C1606      C1654   1.476       .  S
C1611      C1612   1.538       .  S
C1611      C1617   1.527       .  S
C1611      C1615   1.531       .  S
C1611      C1661   1.514       .  S
C1612      H1619   1.080       .  S
C1612      C1613   1.367       .  D
C1613      C1614   1.537       .  S
C1613      C1649   1.483       .  S
C1614      C1618   1.538       .  S
C1614      C1616   1.542       .  S
C1615      H1621   1.087       .  S
C1615      C1616   1.364       .  D
C1616      C1705   1.476       .  S
C1617      H1622   1.086       .  S
C1617      C1618   1.363       .  D
C1618      C1672   1.476       .  S
In1623     O1625   2.248       .  S
In1623     O1626   2.266       .  S
In1623     O1634   2.218       .  S
In1623     O1628   2.239       .  S
In1623     O1630   2.231       .  S
In1623     O1631   2.249       .  S
In1623     O1632   2.285       .  S
In1623     O1635   2.232       .  S
C1624      O1630   1.255       .  A
C1624      O1632   1.261       .  A
C1624      C1642   1.468       .  S
O1625      C1633   1.259       .  A
O1626      C1633   1.260       .  A
C1627      O1634   1.261       .  A
C1627      O1628   1.265       .  A
C1627      C1653   1.461       .  S
C1629      O1631   1.261       .  A
C1629      O1635   1.256       .  A
In1636     O1639   2.252       .  S
In1636     O1647   2.243       .  S
In1636     O1641   2.225   1_565  S
In1636     O1643   2.235       .  S
In1636     O1644   2.287       .  S
In1636     O1645   2.257       .  S
In1636     O1648   2.233       .  S
C1637      O1643   1.258       .  A
C1637      O1645   1.262       .  A
O1639      C1646   1.259   1_565  A
C1640      O1647   1.265       .  A
C1640      O1641   1.261   1_565  A
C1640      C1650   1.467   1_565  S
C1642      O1644   1.262       .  A
C1642      O1648   1.255       .  A
C1649      H1651   1.086       .  S
C1650      H1652   1.086       .  S
C1653      H1655   1.087       .  S
C1653      C1654   1.342       .  D
C1654      H1656   1.086       .  S
C1657      C1658   1.404       .  A
C1657      C1662   1.389       .  A
C1657      H1663   1.083       .  S
C1658      C1659   1.408       .  A
C1659      C1660   1.391       .  A
C1659      H1664   1.075       .  S
C1660      C1661   1.405       .  A
C1660      H1665   1.076       .  S
C1661      C1662   1.406       .  A
C1662      H1666   1.084       .  S
C1667      H1669   1.087       .  S
C1667      C1668   1.340       .  D
C1668      H1670   1.086       .  S
C1671      C1672   1.344       .  D
C1672      H1674   1.086       .  S
C1675      C1676   1.407   1_655  A
C1675      C1680   1.396       .  A
C1675      H1681   1.077       .  S
C1676      C1677   1.405       .  A
C1677      C1678   1.386       .  A
C1677      H1682   1.084       .  S
C1678      C1679   1.404       .  A
C1678      H1683   1.084       .  S
C1679      C1680   1.407   1_455  A
C1680      H1684   1.077       .  S
C1685      H1687   1.088       .  S
C1685      C1686   1.337       .  D
C1689      H1691   1.087       .  S
C1689      C1690   1.338       .  D
C1690      H1692   1.086       .  S
C1693      H1695   1.086       .  S
C1694      H1696   1.086       .  S
C1697      H1699   1.086       .  S
C1697      C1698   1.339       .  D
C1698      H1700   1.087       .  S
C1701      C1702   1.401       .  A
C1701      H1707   1.083       .  S
C1702      C1703   1.408       .  A
C1703      H1708   1.083       .  S
C1704      C1705   1.401       .  A
C1704      H1709   1.083       .  S
C1705      C1706   1.406       .  A
C1706      H1710   1.083       .  S
C1711      C1712   1.343       .  D
C1712      H1714   1.086       .  S
C1715      C1716   1.403       .  A
C1715      H1721   1.082       .  S
C1716      C1717   1.407       .  A
C1717      H1722   1.083       .  S
C1718      C1719   1.400       .  A
C1718      H1723   1.083       .  S
C1719      C1720   1.406       .  A
C1720      H1724   1.083       .  S
C1725      H1727   1.086       .  S
C1725      C1726   1.339       .  D
C1726      H1728   1.087       .  S
C1729      C1730   1.409       .  A
C1729      C1734   1.395       .  A
C1729      H1735   1.074       .  S
C1730      C1731   1.406       .  A
C1731      C1732   1.393       .  A
C1731      H1736   1.083       .  S
C1732      C1733   1.406       .  A
C1732      H1737   1.083       .  S
C1733      C1734   1.407       .  A
C1734      H1738   1.077       .  S
C1739      H1741   1.087       .  S
C1739      C1740   1.344       .  D
C1743      H1745   1.087       .  S
C1743      C1744   1.344       .  D
C1744      H1746   1.086       .  S
C1747      C1752   1.400       .  A
C1747      H1753   1.083   1_455  S
C1748      C1749   1.406       .  A
C1749      C1750   1.393       .  A
C1749      H1754   1.083       .  S
C1750      C1751   1.400       .  A
C1750      H1755   1.083       .  S
C1752      H1756   1.083   1_455  S
C1757      C1758   1.407       .  A
C1757      C1762   1.398       .  A
C1757      H1763   1.082   1_455  S
C1758      C1759   1.402       .  A
C1759      C1760   1.393       .  A
C1759      H1764   1.082       .  S
C1760      C1761   1.406       .  A
C1760      H1765   1.083       .  S
C1761      C1762   1.402       .  A
C1762      H1766   1.082   1_455  S
C1767      C1768   1.411   1_655  A
C1767      C1772   1.396       .  A
C1767      H1773   1.076       .  S
C1768      C1769   1.404       .  A
C1769      C1770   1.390       .  A
C1769      H1774   1.083       .  S
C1770      C1771   1.407       .  A
C1770      H1775   1.083       .  S
C1771      C1772   1.404   1_455  A
C1772      H1776   1.078       .  S
C1777      H1779   1.087       .  S
C1777      C1778   1.341       .  D
C1778      H1780   1.086       .  S
C1781      H1783   1.086       .  S
C1781      C1782   1.338       .  D
C1782      H1784   1.087       .  S
C1785      H1787   1.087       .  S
C1785      C1786   1.339       .  D
C1786      H1788   1.086       .  S
C1789      H1791   1.086       .  S
C1789      C1790   1.347       .  D
C1790      H1792   1.086       .  S
