geometry optimzed in LAMMPS
_audit_creation_date              2020-11-30 
_audit_creation_method            'lammps2cif' 
_symmetry_space_group_name_H-M    'P1' 
_symmetry_Int_Tables_number       1 
_symmetry_cell_setting            triclinic 
loop_ 
_symmetry_equiv_pos_as_xyz 
  x,y,z 
_cell_length_a                    62.86655362 
_cell_length_b                    62.92731128593749 
_cell_length_c                    63.00780605926148 
_cell_angle_alpha                 90.00094776772598 
_cell_angle_beta                  89.73994663273945 
_cell_angle_gamma                 90.12689297893407 
loop_ 
_atom_site_label 
_atom_site_type_symbol 
_atom_site_fract_x 
_atom_site_fract_y 
_atom_site_fract_z 
_atom_site_charge 
O1          O  0.82755354  0.28705026  0.86384752    -0.85000
O2          O  0.83713154  0.32830968  0.85475497    -0.82000
C3          C  0.83264113  0.33472175  0.87323656     0.98500
O4          O  0.84616777  0.33276876  0.88783632    -0.82000
O5          O  0.87802530  0.31440787  0.91182220    -0.84700
C6          C  0.86886344  0.29874279  0.92064354     1.03000
O7          O  0.86227894  0.28339328  0.90971944    -0.77500
O8          O  0.84718270  0.26087915  0.87589905    -0.77600
C9          C  0.82910146  0.26886895  0.87194071     1.03000
O10         O  0.86066583  0.27257531  0.83618588    -0.85000
O11         O  0.87347656  0.31384980  0.83101059    -0.82000
C12         C  0.87849285  0.33287222  0.83460377     0.98500
O13         O  0.87666950  0.34041462  0.85324586    -0.82100
O14         O  0.90653347  0.31752221  0.87621206    -0.84700
C15         C  0.91517744  0.30109440  0.88387178     1.03000
O16         O  0.90401295  0.28573981  0.89073794    -0.77500
O17         O  0.88847244  0.26545367  0.85561601    -0.77600
C18         C  0.87807431  0.26293928  0.83879767     1.02900
Cr19       Cr  0.85099261  0.30042137  0.84807829     1.93700
Cr20       Cr  0.87621474  0.32464973  0.88148005     1.93200
Cr21       Cr  0.87495588  0.27570822  0.88214136     1.39100
O22         O  0.86757293  0.30016335  0.87058820    -1.22700
O23         O  0.70610212  0.11465097  0.83243538    -0.85000
O24         O  0.66610621  0.13033509  0.82584322    -0.82000
C25         C  0.65477146  0.11387542  0.82379731     0.98500
O26         O  0.64957982  0.10295592  0.83983164    -0.82000
O27         O  0.65559710  0.08344362  0.87869117    -0.84700
C28         C  0.67090434  0.07078395  0.87544200     1.03000
O29         O  0.68963868  0.07775459  0.87319731    -0.77500
O30         O  0.72229464  0.10524897  0.86166291    -0.77600
C31         C  0.72202179  0.10681545  0.84162501     1.03000
O32         O  0.71378219  0.14720986  0.86301239    -0.85000
O33         O  0.67279840  0.16051131  0.85943069    -0.82000
C34         C  0.65280843  0.16045638  0.86078357     0.98500
O35         O  0.64259548  0.14310188  0.86075934    -0.82100
O36         O  0.65219411  0.12437574  0.89933310    -0.84700
C37         C  0.66361442  0.11640339  0.91371038     1.03000
O38         O  0.67929032  0.10472751  0.90881726    -0.77500
O39         O  0.70905697  0.13375947  0.89475878    -0.77600
C40         C  0.71713876  0.14765320  0.88275344     1.02900
Cr41       Cr  0.68889308  0.13674576  0.84674990     1.93700
Cr42       Cr  0.65213967  0.11384115  0.86947780     1.93200
Cr43       Cr  0.69854169  0.10623941  0.88328636     1.39100
O44         O  0.67982993  0.11889219  0.86648894    -1.22700
O45         O  0.87625500  0.15483005  0.70632256    -0.85000
O46         O  0.85582154  0.15519542  0.66769818    -0.82000
C47         C  0.87250604  0.15675924  0.65658489     0.98500
O48         O  0.88403800  0.14070351  0.65375008    -0.82000
O49         O  0.90434571  0.10318123  0.66215759    -0.84700
C50         C  0.91778560  0.10726196  0.67656430     1.03000
O51         O  0.91174426  0.11136362  0.69525270    -0.77500
O52         O  0.88646960  0.12852258  0.72674939    -0.77600
C53         C  0.88525718  0.14833780  0.72291946     1.03000
O54         O  0.84499397  0.12635061  0.72309550    -0.85000
O55         O  0.82853104  0.12233849  0.68345242    -0.82000
C56         C  0.82658790  0.11818252  0.66407443     0.98500
O57         O  0.84272518  0.11825693  0.65177478    -0.82100
O58         O  0.86373604  0.08183080  0.66347083    -0.84700
C59         C  0.87260511  0.06879816  0.67574832     1.03000
O60         O  0.88386153  0.07528734  0.69113066    -0.77500
O61         O  0.85633830  0.09374503  0.72001891    -0.77600
C62         C  0.84369284  0.10697280  0.72817367     1.02900
Cr63       Cr  0.85271862  0.13818427  0.69449597     1.93700
Cr64       Cr  0.87344474  0.11150593  0.65970307     1.93200
Cr65       Cr  0.88364124  0.10323212  0.70686450     1.39100
O66         O  0.87007768  0.11750178  0.68696658    -1.22700
O67         O  0.67348133  0.35949956  0.79332143    -0.85000
O68         O  0.66909563  0.34450884  0.83413924    -0.82000
C69         C  0.67246153  0.36173268  0.84385721     0.98500
O70         O  0.65815125  0.37574224  0.84462037    -0.82000
O71         O  0.62456284  0.40045056  0.83128273    -0.84700
C72         C  0.63272988  0.41103196  0.81614613     1.03000
O73         O  0.63733903  0.40218422  0.79882099    -0.77500
O74         O  0.65006154  0.37162910  0.77069263    -0.77600
C75         C  0.66918874  0.36834771  0.77591202     1.03000
O76         O  0.64037426  0.33152704  0.77959855    -0.85000
O77         O  0.63293293  0.32039212  0.82071394    -0.82000
C78         C  0.62900030  0.32151644  0.84027709     0.98500
O79         O  0.62989999  0.33928639  0.84981243    -0.82100
O80         O  0.59715624  0.36336700  0.83259476    -0.84700
C81         C  0.58689825  0.37265384  0.81810031     1.03000
O82         O  0.59653848  0.38221700  0.80325204    -0.77500
O83         O  0.61054618  0.34928786  0.77803355    -0.77600
C84         C  0.62153939  0.33335593  0.77291585     1.02900
Cr85       Cr  0.65264535  0.34057005  0.80727448     1.93700
Cr86       Cr  0.62787605  0.36915863  0.83775084     1.93200
Cr87       Cr  0.62433958  0.37536036  0.78937869     1.39100
O88         O  0.63481108  0.36169540  0.81149311    -1.22700
O89         O  0.81324173  0.31575125  0.64124336    -0.85000
O90         O  0.85455649  0.32234283  0.65375343    -0.82000
C91         C  0.86284281  0.31930906  0.63571495     0.98500
O92         O  0.86311481  0.33416728  0.62225463    -0.82000
O93         O  0.84817573  0.36828270  0.59952996    -0.84700
C94         C  0.83366611  0.35979947  0.58860203     1.03000
O95         O  0.81676908  0.35325316  0.59729340    -0.77500
O96         O  0.78966717  0.33789914  0.62840448    -0.77600
C97         C  0.79560537  0.31909078  0.63243984     1.03000
O98         O  0.79919233  0.34820539  0.66964048    -0.85000
O99         O  0.84058907  0.35755336  0.67912315    -0.82000
C100        C  0.86005619  0.36193184  0.67722551     0.98500
O101        O  0.86886564  0.36145675  0.65910416    -0.82100
O102        O  0.84890073  0.39436715  0.63673210    -0.84700
C103        C  0.83354864  0.40392969  0.62792957     1.03000
O104        O  0.81896158  0.39358539  0.61870358    -0.77500
O105        O  0.79478120  0.37732054  0.65116232    -0.77600
C106        C  0.79069341  0.36621884  0.66730432     1.02900
Cr107      Cr  0.82711112  0.33737141  0.65934347     1.93700
Cr108      Cr  0.85547266  0.36397108  0.63007516     1.93200
Cr109      Cr  0.80681155  0.36478808  0.62484305     1.39100
O110        O  0.82971962  0.35551192  0.63811422    -1.22700
O111        O  0.63855783  0.21109775  0.66049894    -0.85000
O112        O  0.63635783  0.16954016  0.67154829    -0.82000
C113        C  0.63376047  0.14978077  0.67070648     0.98500
O114        O  0.63502843  0.14005324  0.65302801    -0.82000
O115        O  0.59902745  0.15343363  0.63191914    -0.84700
C116        C  0.58605694  0.16632004  0.62384488     1.03000
O117        O  0.59268523  0.18272798  0.61410744    -0.77500
O118        O  0.60725322  0.20946232  0.64553933    -0.77600
C119        C  0.61905693  0.21594988  0.66028079     1.03000
O120        O  0.67050876  0.20120957  0.62973335    -0.85000
O121        O  0.67178602  0.15979307  0.64419111    -0.82000
C122        C  0.67438770  0.15009070  0.62679448     0.98500
O123        O  0.65922154  0.14838198  0.61397377    -0.82100
O124        O  0.62266669  0.15798137  0.59247754    -0.84700
C125        C  0.62791845  0.17408897  0.58146761     1.03000
O126        O  0.63090889  0.19183923  0.59015083    -0.77500
O127        O  0.64369914  0.22106468  0.61970782    -0.77600
C128        C  0.66357397  0.21825462  0.62184899     1.02900
Cr129      Cr  0.65291353  0.18487626  0.65000000     1.93700
Cr130      Cr  0.62930667  0.15191186  0.62337997     1.93200
Cr131      Cr  0.61963814  0.19966283  0.61822409     1.39100
O132        O  0.63385488  0.17881095  0.63047808    -1.22700
O133        O  0.16674672  0.14149345  0.71162872    -0.85000
O134        O  0.17423331  0.13123986  0.66994432    -0.82000
C135        C  0.17155616  0.12602412  0.65085325     0.98500
O136        O  0.15288856  0.12532993  0.64310937    -0.82000
O137        O  0.13344402  0.09176269  0.66462526    -0.84700
C138        C  0.12672766  0.08167652  0.68069015     1.03000
O139        O  0.11832621  0.09145266  0.69617077    -0.77500
O140        O  0.15200356  0.11036358  0.71655233    -0.77600
C141        C  0.16662434  0.12345906  0.72045728     1.03000
O142        O  0.13504692  0.17083455  0.69824022    -0.85000
O143        O  0.14603666  0.16423911  0.65645445    -0.82000
C144        C  0.12726364  0.16617612  0.64969180     0.98500
O145        O  0.11449638  0.15075457  0.65123285    -0.82100
O146        O  0.09430261  0.11576697  0.66875723    -0.84700
C147        C  0.08467592  0.12379209  0.68460102     1.03000
O148        O  0.09497422  0.13059462  0.70025912    -0.77500
O149        O  0.12681694  0.14832917  0.72361879    -0.77600
C150        C  0.12820434  0.16723991  0.71670735     1.02900
Cr151      Cr  0.15408165  0.15046856  0.68395967     1.93700
Cr152      Cr  0.12449312  0.12154851  0.65856094     1.93200
Cr153      Cr  0.12375688  0.12082533  0.70736108     1.39100
O154        O  0.13411413  0.13077050  0.68331264    -1.22700
O155        O  0.28625420  0.16671941  0.87150511    -0.85000
O156        O  0.32941204  0.17158609  0.87393277    -0.82000
C157        C  0.34893666  0.16751351  0.87561988     0.98500
O158        O  0.35564558  0.14860889  0.87330336    -0.82000
O159        O  0.33983212  0.12690399  0.90796068    -0.84700
C160        C  0.32600479  0.11999469  0.92077032     1.03000
O161        O  0.30789088  0.11398972  0.91424452    -0.77500
O162        O  0.28564158  0.14983772  0.90183780    -0.77600
C163        C  0.28056256  0.16567792  0.89075215     1.03000
O164        O  0.29212257  0.13667061  0.83794185    -0.85000
O165        O  0.33506890  0.14598162  0.83684183    -0.82000
C166        C  0.34220305  0.12771371  0.83259280     0.98500
O167        O  0.34170444  0.11338024  0.84653191    -0.82100
O168        O  0.32918352  0.09077987  0.88197739    -0.84700
C169        C  0.31142382  0.08257081  0.87711626     1.03000
O170        O  0.29512954  0.09390224  0.87513669    -0.77500
O171        O  0.27089975  0.12804722  0.86439812    -0.77600
C172        C  0.27425093  0.13041328  0.84467829     1.02900
Cr173      Cr  0.31097107  0.15360224  0.85639340     1.93700
Cr174      Cr  0.33969577  0.12075030  0.87721531     1.93200
Cr175      Cr  0.29169441  0.12215495  0.88793501     1.39100
O176        O  0.31413797  0.13213756  0.87404208    -1.22700
O177        O  0.12973259  0.28846661  0.83662838    -0.85000
O178        O  0.14294575  0.33004527  0.83296355    -0.82000
C179        C  0.12550084  0.33973872  0.83061298     0.98500
O180        O  0.11293038  0.34191306  0.84611385    -0.82000
O181        O  0.09337182  0.33383494  0.88465410    -0.84700
C182        C  0.08157417  0.31801128  0.88082283     1.03000
O183        O  0.08959563  0.29997646  0.87730293    -0.77500
O184        O  0.11925176  0.27007351  0.86440922    -0.77600
C185        C  0.12161037  0.27189173  0.84449907     1.03000
O186        O  0.16143036  0.28084776  0.86799251    -0.85000
O187        O  0.17159342  0.32294406  0.86765149    -0.82000
C188        C  0.17024252  0.34286185  0.86857533     0.98500
O189        O  0.15224099  0.35179491  0.86776423    -0.82100
O190        O  0.13336874  0.33922531  0.90565968    -0.84700
C191        C  0.12554306  0.32677383  0.91934873     1.03000
O192        O  0.11537067  0.31029385  0.91366087    -0.77500
O193        O  0.14610940  0.28267368  0.89921410    -0.77600
C194        C  0.16113256  0.27632648  0.88753429     1.02900
Cr195      Cr  0.14991084  0.30610729  0.85278472     1.93700
Cr196      Cr  0.12349452  0.33964816  0.87577915     1.93200
Cr197      Cr  0.11843707  0.29232345  0.88744831     1.39100
O198        O  0.13054393  0.31262475  0.87204141    -1.22700
O199        O  0.37908441  0.32274539  0.80418259    -0.85000
O200        O  0.36167442  0.32485849  0.84365258    -0.82000
C201        C  0.37818098  0.32489768  0.85499891     0.98500
O202        O  0.38939491  0.34143031  0.85664461    -0.82000
O203        O  0.40912025  0.37802491  0.84275721    -0.84700
C204        C  0.42197027  0.37139926  0.82869431     1.03000
O205        O  0.41529811  0.36551815  0.81074338    -0.77500
O206        O  0.38822681  0.34734824  0.78125620    -0.77600
C207        C  0.38721792  0.32791950  0.78668754     1.03000
O208        O  0.34687605  0.35045263  0.78816154    -0.85000
O209        O  0.33235518  0.35630827  0.82859145    -0.82000
C210        C  0.33187726  0.36171158  0.84782878     0.98500
O211        O  0.34893418  0.36318523  0.85836405    -0.82100
O212        O  0.36796356  0.39850895  0.84119341    -0.84700
C213        C  0.37691132  0.41047774  0.82785771     1.03000
O214        O  0.38877434  0.40276281  0.81347309    -0.77500
O215        O  0.35940572  0.38288272  0.78724926    -0.77600
C216        C  0.34581461  0.36932313  0.78140463     1.02900
Cr217      Cr  0.35630937  0.34016511  0.81654774     1.93700
Cr218      Cr  0.37856809  0.36972728  0.84779805     1.93200
Cr219      Cr  0.38704323  0.37375520  0.79975023     1.39100
O220        O  0.37408288  0.36121183  0.82141312    -1.22700
O221        O  0.20857477  0.35938668  0.67431163    -0.85000
O222        O  0.16540437  0.35008693  0.67160684    -0.82000
C223        C  0.15641636  0.36792603  0.67257149     0.98500
O224        O  0.15729227  0.38055109  0.65706031    -0.82000
O225        O  0.17602979  0.40180597  0.62386633    -0.84700
C226        C  0.19280286  0.41045502  0.63108812     1.03000
O227        O  0.20882234  0.39941230  0.63581503    -0.77500
O228        O  0.23210926  0.36493412  0.64926875    -0.77600
C229        C  0.22730835  0.36400080  0.66870058     1.03000
O230        O  0.21651436  0.32692914  0.64286527    -0.85000
O231        O  0.17401549  0.32131987  0.63844128    -0.82000
C232        C  0.15562523  0.32501750  0.63157885     0.98500
O233        O  0.14886710  0.34391121  0.62948396    -0.82100
O234        O  0.16993285  0.36465199  0.59692321    -0.84700
C235        C  0.18537843  0.37235493  0.58659035     1.03000
O236        O  0.20153573  0.37920772  0.59619961    -0.77500
O237        O  0.22037576  0.34241451  0.61181143    -0.77600
C238        C  0.22320794  0.32666142  0.62391566     1.02900
Cr239      Cr  0.19102610  0.34118048  0.65527658     1.93700
Cr240      Cr  0.16488450  0.37185279  0.62747141     1.93200
Cr241      Cr  0.21375095  0.37074662  0.62412915     1.39100
O242        O  0.18971086  0.36118602  0.63551703    -1.22700
O243        O  0.33828715  0.21596192  0.63163844    -0.85000
O244        O  0.32896644  0.17364267  0.63221556    -0.82000
C245        C  0.33106333  0.15380278  0.63086436     0.98500
O246        O  0.34924032  0.14535767  0.63328026    -0.82000
O247        O  0.37146203  0.15789264  0.59760414    -0.84700
C248        C  0.37994956  0.17056161  0.58458336     1.03000
O249        O  0.38938918  0.18712137  0.59108424    -0.77500
O250        O  0.35622240  0.21337154  0.60183300    -0.77600
C251        C  0.34043994  0.22019696  0.61208692     1.03000
O252        O  0.36773675  0.20951506  0.66594651    -0.85000
O253        O  0.35493002  0.16764444  0.66924680    -0.82000
C254        C  0.37251137  0.15873126  0.67319510     0.98500
O255        O  0.38626488  0.15657958  0.65874455    -0.82100
O256        O  0.40960051  0.16514592  0.62240025    -0.84700
C257        C  0.41990983  0.18192741  0.62690053     1.03000
O258        O  0.41031877  0.19921987  0.62966823    -0.77500
O259        O  0.37891337  0.22793184  0.63850759    -0.77600
C260        C  0.37625508  0.22602381  0.65832744     1.02900
Cr261      Cr  0.34907189  0.19119557  0.64847766     1.93700
Cr262      Cr  0.37854262  0.15815206  0.62823078     1.93200
Cr263      Cr  0.38278249  0.20530856  0.61636235     1.39100
O264        O  0.37011046  0.18487491  0.63094855    -1.22700
O265        O  0.28711350  0.86841827  0.84203260    -0.85000
O266        O  0.32720193  0.85108909  0.84115595    -0.82000
C267        C  0.33911704  0.86708027  0.83808771     0.98500
O268        O  0.34244663  0.88025543  0.85283483    -0.82000
O269        O  0.33449367  0.90419468  0.88869931    -0.84700
C270        C  0.32045501  0.91687833  0.88199951     1.03000
O271        O  0.30199676  0.91024856  0.87790524    -0.77500
O272        O  0.26911052  0.88323493  0.86792516    -0.77600
C273        C  0.27167070  0.87949724  0.84838861     1.03000
O274        O  0.27525940  0.84047843  0.87660988    -0.85000
O275        O  0.31610486  0.82591557  0.87770433    -0.82000
C276        C  0.33602886  0.82561198  0.87951304     0.98500
O277        O  0.34662517  0.84267486  0.87842851    -0.82100
O278        O  0.33363621  0.86556168  0.91371777    -0.84700
C279        C  0.32111119  0.87589485  0.92557251     1.03000
O280        O  0.30772792  0.88852532  0.91762002    -0.77500
O281        O  0.27752695  0.85955220  0.90571506    -0.77600
C282        C  0.27001656  0.84392471  0.89576093     1.02900
Cr283      Cr  0.30198616  0.84803483  0.86071606     1.93700
Cr284      Cr  0.33731710  0.87285624  0.88315105     1.93200
Cr285      Cr  0.29059709  0.88423030  0.89127787     1.39100
O286        O  0.30992157  0.86831303  0.87837266    -1.22700
O287        O  0.16435905  0.72009046  0.87066969    -0.85000
O288        O  0.17319479  0.67785784  0.87152974    -0.82000
C289        C  0.17096523  0.65828814  0.87511755     0.98500
O290        O  0.15254685  0.65009874  0.87619563    -0.82000
O291        O  0.13276317  0.66658351  0.91222055    -0.84700
C292        C  0.12462510  0.68041123  0.92426548     1.03000
O293        O  0.11500311  0.69615666  0.91657195    -0.77500
O294        O  0.14887017  0.72055115  0.90198941    -0.77600
C295        C  0.16427391  0.72543299  0.88997456     1.03000
O296        O  0.13223809  0.71296348  0.83922135    -0.85000
O297        O  0.14350360  0.67088270  0.83761027    -0.82000
C298        C  0.12651720  0.66019271  0.83648358     0.98500
O299        O  0.11448606  0.65809571  0.85241807    -0.82100
O300        O  0.09338168  0.67164637  0.88845177    -0.84700
C301        C  0.08299007  0.68797424  0.88273817     1.03000
O302        O  0.09245802  0.70518010  0.87860401    -0.77500
O303        O  0.12401996  0.73309869  0.86632379    -0.77600
C304        C  0.12560720  0.73039413  0.84654632     1.02900
Cr305      Cr  0.15172335  0.69498673  0.85629983     1.93700
Cr306      Cr  0.12394552  0.66368520  0.88196380     1.93200
Cr307      Cr  0.12092507  0.71196384  0.88980856     1.39100
O308        O  0.13218691  0.69012614  0.87596885    -1.22700
O309        O  0.14636412  0.84256574  0.72046684    -0.85000
O310        O  0.13778780  0.82539797  0.68138691    -0.82000
C311        C  0.13295203  0.82361117  0.66208473     0.98500
O312        O  0.13274757  0.83987806  0.65017709    -0.82000
O313        O  0.10011400  0.86482849  0.66623172    -0.84700
C314        C  0.09005882  0.87581652  0.67969864     1.03000
O315        O  0.09989643  0.88830096  0.69196008    -0.77500
O316        O  0.11604970  0.85950874  0.72029081    -0.77600
C317        C  0.12765357  0.84490887  0.72745242     1.03000
O318        O  0.17800528  0.86902197  0.70109410    -0.85000
O319        O  0.17243199  0.84889355  0.66332450    -0.82000
C320        C  0.17449903  0.86438356  0.65074479     0.98500
O321        O  0.15946272  0.87730415  0.64796477    -0.82100
O322        O  0.12592561  0.90286069  0.66026317    -0.84700
C323        C  0.13395209  0.91615883  0.67313970     1.03000
O324        O  0.13996909  0.91024121  0.69129766    -0.77500
O325        O  0.15529322  0.88396653  0.72290836    -0.77600
C326        C  0.17430775  0.87986871  0.71743050     1.02900
Cr327      Cr  0.15721508  0.84795491  0.69105410     1.93700
Cr328      Cr  0.13009134  0.87102897  0.65807362     1.93200
Cr329      Cr  0.12857555  0.88433451  0.70511142     1.39100
O330        O  0.13869452  0.86790332  0.68466973    -1.22700
O331        O  0.33623043  0.61884345  0.80375193    -0.85000
O332        O  0.33263009  0.63726755  0.84292480    -0.82000
C333        C  0.33073801  0.62161639  0.85532497     0.98500
O334        O  0.34652111  0.60976715  0.85905458    -0.82000
O335        O  0.38512725  0.58905523  0.85059239    -0.84700
C336        C  0.38199645  0.57624602  0.83536540     1.03000
O337        O  0.37856225  0.58306117  0.81689078    -0.77500
O338        O  0.36433979  0.60912697  0.78546316    -0.77600
C339        C  0.34437556  0.60931992  0.78812453     1.03000
O340        O  0.36598632  0.65105508  0.79103775    -0.85000
O341        O  0.36609766  0.66605422  0.83224386    -0.82000
C342        C  0.36798939  0.66655175  0.85217069     0.98500
O343        O  0.36866148  0.64952159  0.86287619    -0.82100
O344        O  0.40635370  0.62992992  0.85187119    -0.84700
C345        C  0.42004199  0.62216995  0.83941035     1.03000
O346        O  0.41434977  0.61052025  0.82409462    -0.77500
O347        O  0.39820981  0.63896508  0.79524127    -0.77600
C348        C  0.38559628  0.65186441  0.78663723     1.02900
Cr349      Cr  0.35185048  0.64192154  0.81816176     1.93700
Cr350      Cr  0.37638527  0.61980142  0.85396540     1.93200
Cr351      Cr  0.38767822  0.61140797  0.80696115     1.39100
O352        O  0.37195558  0.62424318  0.82646879    -1.22700
O353        O  0.37792903  0.78330026  0.67448930    -0.85000
O354        O  0.36120102  0.82413851  0.67742875    -0.82000
C355        C  0.37793512  0.83473274  0.68068986     0.98500
O356        O  0.39122286  0.83742742  0.66586467    -0.82000
O357        O  0.41305547  0.83044537  0.62835866    -0.84700
C358        C  0.42522821  0.81485885  0.63169463     1.03000
O359        O  0.41780428  0.79633216  0.63393629    -0.77500
O360        O  0.38901984  0.76544527  0.64656118    -0.77600
C361        C  0.38647562  0.76695827  0.66651046     1.03000
O362        O  0.34773480  0.77334148  0.64275712    -0.85000
O363        O  0.33454743  0.81503946  0.64200803    -0.82000
C364        C  0.33515809  0.83500212  0.64022963     0.98500
O365        O  0.35263393  0.84492163  0.64181214    -0.82100
O366        O  0.37416518  0.83434862  0.60507060    -0.84700
C367        C  0.38258214  0.82225800  0.59143443     1.03000
O368        O  0.39243757  0.80568173  0.59718476    -0.77500
O369        O  0.36204586  0.77709965  0.61130063    -0.77600
C370        C  0.34846017  0.76853676  0.62333661     1.02900
Cr371      Cr  0.35688813  0.79963522  0.65769072     1.93700
Cr372      Cr  0.38233906  0.83469197  0.63554898     1.93200
Cr373      Cr  0.38936530  0.78769998  0.62342092     1.39100
O374        O  0.37632571  0.80734853  0.63881791    -1.22700
O375        O  0.21836263  0.65769987  0.64538109    -0.85000
O376        O  0.17576340  0.66265972  0.65616903    -0.82000
C377        C  0.16628486  0.66592494  0.63883997     0.98500
O378        O  0.16529459  0.65145011  0.62502604    -0.82000
O379        O  0.17618637  0.61460475  0.60335190    -0.84700
C380        C  0.19407248  0.61831096  0.59457409     1.03000
O381        O  0.21072302  0.61997279  0.60546185    -0.77500
O382        O  0.23669356  0.62884142  0.63883746    -0.77600
C383        C  0.23535995  0.64886876  0.63932850     1.03000
O384        O  0.22185169  0.62499367  0.67696889    -0.85000
O385        O  0.17885196  0.62709125  0.68372514    -0.82000
C386        C  0.15911062  0.62629571  0.68035960     0.98500
O387        O  0.15192284  0.62694447  0.66155829    -0.82100
O388        O  0.16508183  0.59014882  0.64109277    -0.84700
C389        C  0.17800813  0.57663995  0.63384820     1.03000
O390        O  0.19553259  0.58261754  0.62601262    -0.77500
O391        O  0.21790984  0.59387148  0.66195047    -0.77600
C392        C  0.22493524  0.60513307  0.67688930     1.02900
Cr393      Cr  0.19828435  0.64179077  0.66399042     1.93700
Cr394      Cr  0.16655908  0.62088609  0.63346860     1.93200
Cr395      Cr  0.21357297  0.60746203  0.63382585     1.39100
O396        O  0.19267275  0.62339644  0.64368507    -1.22700
O397        O  0.84752496  0.84510832  0.71436088    -0.85000
O398        O  0.83461115  0.85550918  0.67445906    -0.82000
C399        C  0.83502403  0.86107512  0.65528500     0.98500
O400        O  0.85246044  0.86107101  0.64505883    -0.82000
O401        O  0.87652848  0.89298284  0.66430899    -0.84700
C402        C  0.88671633  0.90216353  0.67899513     1.03000
O403        O  0.89710641  0.89143523  0.69241240    -0.77500
O404        O  0.86595254  0.87444619  0.71793577    -0.77600
C405        C  0.84995139  0.86327628  0.72257851     1.03000
O406        O  0.87525242  0.81355118  0.69665345    -0.85000
O407        O  0.85907781  0.82100770  0.65706239    -0.82000
C408        C  0.87622808  0.81867466  0.64678981     0.98500
O409        O  0.88974385  0.83353383  0.64637205    -0.82100
O410        O  0.91397255  0.86681919  0.66112114    -0.84700
C411        C  0.92601475  0.85818374  0.67465135     1.03000
O412        O  0.91851829  0.85120611  0.69193496    -0.77500
O413        O  0.88887276  0.83487207  0.72055591    -0.77600
C414        C  0.88451933  0.81628050  0.71409315     1.02900
Cr415      Cr  0.85572074  0.83519481  0.68536767     1.93700
Cr416      Cr  0.88268222  0.86295551  0.65601987     1.93200
Cr417      Cr  0.89155239  0.86228240  0.70403469     1.39100
O418        O  0.87666666  0.85358869  0.68184861    -1.22700
O419        O  0.86214944  0.69871182  0.83626512    -0.85000
O420        O  0.87464928  0.65978715  0.82172763    -0.82000
C421        C  0.88099011  0.64087571  0.82114513     0.98500
O422        O  0.87832973  0.62867969  0.83702196    -0.82000
O423        O  0.90944115  0.64505705  0.86268661    -0.84700
C424        C  0.91934804  0.65913022  0.87296019     1.03000
O425        O  0.90940700  0.67354344  0.88307675    -0.77500
O426        O  0.89173780  0.70099888  0.85412167    -0.77600
C427        C  0.88008955  0.70725200  0.83918469     1.03000
O428        O  0.83070642  0.67852100  0.86192020    -0.85000
O429        O  0.83935994  0.64009895  0.84323865    -0.82000
C430        C  0.83521114  0.63048842  0.86034475     0.98500
O431        O  0.84944175  0.62901256  0.87428438    -0.82100
O432        O  0.88335771  0.64117026  0.89949896    -0.84700
C433        C  0.87590026  0.65485585  0.91219104     1.03000
O434        O  0.86895227  0.67229684  0.90536562    -0.77500
O435        O  0.85195541  0.70129943  0.87783225    -0.77600
C436        C  0.83335637  0.69490201  0.87306628     1.02900
Cr437      Cr  0.85302148  0.66886341  0.84224956     1.93700
Cr438      Cr  0.87935419  0.63770188  0.86800986     1.93200
Cr439      Cr  0.87987034  0.68546114  0.87897632     1.39100
O440        O  0.87093231  0.66410766  0.86319117    -1.22700
O441        O  0.71794864  0.81986289  0.86570730    -0.85000
O442        O  0.67570466  0.82124129  0.85470109    -0.82000
C443        C  0.66673230  0.81863599  0.87250778     0.98500
O444        O  0.66656290  0.83349652  0.88594295    -0.82000
O445        O  0.68046354  0.86878571  0.90789515    -0.84700
C446        C  0.69681179  0.86216042  0.91761022     1.03000
O447        O  0.71354702  0.85769532  0.90754364    -0.77500
O448        O  0.73985596  0.84522227  0.87524330    -0.77600
C449        C  0.73548601  0.82570635  0.87340257     1.03000
O450        O  0.72713958  0.85261772  0.83526472    -0.85000
O451        O  0.68471985  0.85661835  0.82758073    -0.82000
C452        C  0.66506651  0.85930909  0.83030896     0.98500
O453        O  0.65724319  0.85935525  0.84894107    -0.82100
O454        O  0.67501826  0.89438170  0.86998680    -0.84700
C455        C  0.68966251  0.90567660  0.87788998     1.03000
O456        O  0.70561691  0.89710603  0.88644920    -0.77500
O457        O  0.72898944  0.88299531  0.85217403    -0.77600
C458        C  0.73357820  0.87164661  0.83633700     1.02900
Cr459      Cr  0.70111728  0.83900688  0.84740734     1.93700
Cr460      Cr  0.67169526  0.86364686  0.87745867     1.93200
Cr461      Cr  0.72021902  0.86985769  0.87948950     1.39100
O462        O  0.69764378  0.85761062  0.86808337    -1.22700
O463        O  0.80701863  0.61604683  0.67304612    -0.85000
O464        O  0.84340764  0.63777647  0.66290468    -0.82000
C465        C  0.85586911  0.62206260  0.66378069     0.98500
O466        O  0.85710371  0.60941621  0.64838572    -0.82000
O467        O  0.84329546  0.58410143  0.61597788    -0.84700
C468        C  0.83198933  0.57013495  0.62520475     1.03000
O469        O  0.81433542  0.57511303  0.63344483    -0.77500
O470        O  0.78362650  0.59979264  0.65303171    -0.77600
C471        C  0.79099034  0.60421751  0.67123031     1.03000
O472        O  0.78314532  0.64190593  0.64408874    -0.85000
O473        O  0.81991407  0.66022036  0.63089267    -0.82000
C474        C  0.83824938  0.66306567  0.62346080     0.98500
O475        O  0.85127263  0.64764484  0.62231393    -0.82100
O476        O  0.83343231  0.62132654  0.59150014    -0.84700
C477        C  0.81979993  0.60926626  0.58301904     1.03000
O478        O  0.80793923  0.59742091  0.59422760    -0.77500
O479        O  0.78001059  0.62431802  0.61431276    -0.77600
C480        C  0.77427618  0.63930189  0.62630438     1.02900
Cr481      Cr  0.81378966  0.63750499  0.65129670     1.93700
Cr482      Cr  0.84444904  0.61588200  0.62039246     1.93200
Cr483      Cr  0.79800522  0.60041452  0.62433804     1.39100
O484        O  0.81871306  0.61788408  0.63189056    -1.22700
O485        O  0.64344871  0.64275984  0.77076169    -0.85000
O486        O  0.63819066  0.66326743  0.80874042    -0.82000
C487        C  0.63382510  0.66677872  0.82793303     0.98500
O488        O  0.63273021  0.65155014  0.84114572    -0.82000
O489        O  0.59646206  0.62873747  0.82921043    -0.84700
C490        C  0.58485326  0.61767941  0.81708046     1.03000
O491        O  0.59304022  0.60474228  0.80407661    -0.77500
O492        O  0.61129470  0.62951686  0.77264741    -0.77600
C493        C  0.62461085  0.64178136  0.76391474     1.03000
O494        O  0.67259462  0.61426310  0.79017651    -0.85000
O495        O  0.67069553  0.63781511  0.82724187    -0.82000
C496        C  0.67196107  0.62230248  0.83984382     0.98500
O497        O  0.65570632  0.61113712  0.84366708    -0.82100
O498        O  0.61856371  0.58933234  0.83579711    -0.84700
C499        C  0.62470404  0.57460294  0.82355476     1.03000
O500        O  0.63031967  0.57866067  0.80473263    -0.77500
O501        O  0.64692726  0.60063746  0.77096379    -0.77600
C502        C  0.66651148  0.60259616  0.77506895     1.02900
Cr503      Cr  0.65465278  0.63823636  0.79993675     1.93700
Cr504      Cr  0.62646149  0.62035399  0.83552309     1.93200
Cr505      Cr  0.62128927  0.60463045  0.78955351     1.39100
O506        O  0.63396988  0.62111486  0.80834037    -1.22700
O507        O  0.67902997  0.79038032  0.63007625    -0.85000
O508        O  0.67242668  0.82942496  0.64743874    -0.82000
C509        C  0.67398479  0.84183141  0.63172944     0.98500
O510        O  0.65902815  0.84347664  0.61851965    -0.82000
O511        O  0.62646106  0.82870494  0.59291380    -0.84700
C512        C  0.63542658  0.81555502  0.58055011     1.03000
O513        O  0.64241942  0.79814393  0.58757957    -0.77500
O514        O  0.65726724  0.76752165  0.61553921    -0.77600
C515        C  0.67597410  0.77319376  0.62037949     1.03000
O516        O  0.64664385  0.77242445  0.65678443    -0.85000
O517        O  0.63751000  0.81240924  0.67172740    -0.82000
C518        C  0.63225423  0.83171020  0.67206366     0.98500
O519        O  0.63152507  0.84229510  0.65498371    -0.82100
O520        O  0.59990725  0.82369613  0.63022846    -0.84700
C521        C  0.59077917  0.80974787  0.61904445     1.03000
O522        O  0.60157929  0.79712752  0.60773878    -0.77500
O523        O  0.61745905  0.76995264  0.63804686    -0.77600
C524        C  0.62899975  0.76349387  0.65299914     1.02900
Cr525      Cr  0.65742016  0.80156896  0.64994070     1.93700
Cr526      Cr  0.62983351  0.83256479  0.62451926     1.93200
Cr527      Cr  0.63038317  0.78491256  0.61338476     1.39100
O528        O  0.63922755  0.80638960  0.62927952    -1.22700
O529        O  0.86509995  0.27137563  0.16313836    -0.85000
O530        O  0.86229959  0.31258942  0.17705444    -0.82000
C531        C  0.86348456  0.33257830  0.17701560     0.98500
O532        O  0.86308801  0.34274296  0.15965426    -0.82000
O533        O  0.90056554  0.33185362  0.13908519    -0.84700
C534        C  0.91378143  0.31985544  0.12992083     1.03000
O535        O  0.90730737  0.30594220  0.11703529    -0.77500
O536        O  0.89594906  0.27711567  0.14770832    -0.77600
C537        C  0.88501257  0.26850790  0.16213621     1.03000
O538        O  0.83232623  0.27996610  0.13260140    -0.85000
O539        O  0.82736180  0.32028067  0.14892667    -0.82000
C540        C  0.82476155  0.33178104  0.13264917     0.98500
O541        O  0.84022193  0.33601149  0.12051842    -0.82100
O542        O  0.87774965  0.32927580  0.09895660    -0.84700
C543        C  0.87321802  0.31411393  0.08646923     1.03000
O544        O  0.87011306  0.29559281  0.09359680    -0.77500
O545        O  0.86090085  0.26314804  0.12202604    -0.77600
C546        C  0.84092326  0.26394882  0.12419635     1.02900
Cr547      Cr  0.84813996  0.29675149  0.15398512     1.93700
Cr548      Cr  0.87023875  0.33304881  0.12989927     1.93200
Cr549      Cr  0.88238879  0.28680337  0.12105561     1.39100
O550        O  0.86680185  0.30557917  0.13494279    -1.22700
O551        O  0.77128635  0.36129311  0.34648701    -0.85000
O552        O  0.81337281  0.36006495  0.33519009    -0.82000
C553        C  0.83329580  0.36163138  0.33668930     0.98500
O554        O  0.84225698  0.36082415  0.35466568    -0.82000
O555        O  0.82906972  0.39529418  0.37928373    -0.84700
C556        C  0.81666449  0.40699932  0.38986266     1.03000
O557        O  0.80093698  0.39897568  0.39940096    -0.77500
O558        O  0.77559214  0.39073569  0.36467216    -0.77600
C559        C  0.76814644  0.38101969  0.34887765     1.03000
O560        O  0.77835026  0.32582097  0.37451478    -0.85000
O561        O  0.81931730  0.32260485  0.36023938    -0.82000
C562        C  0.83095219  0.31895187  0.37613487     0.98500
O563        O  0.83434237  0.33314236  0.38984846    -0.82100
O564        O  0.82348900  0.36675222  0.41568410    -0.84700
C565        C  0.80705073  0.36053132  0.42583363     1.03000
O566        O  0.78929780  0.35899952  0.41678218    -0.77500
O567        O  0.75980324  0.35303878  0.38544390    -0.77600
C568        C  0.76165842  0.33325391  0.38271002     1.02900
Cr569      Cr  0.79614092  0.34371894  0.35571576     1.93700
Cr570      Cr  0.83026977  0.36393391  0.38432546     1.93200
Cr571      Cr  0.78296904  0.37443778  0.39052289     1.39100
O572        O  0.80329515  0.36058555  0.37685973    -1.22700
O573        O  0.83271890  0.12238650  0.28610885    -0.85000
O574        O  0.82834798  0.13541125  0.32752026    -0.82000
C575        C  0.82483381  0.11785317  0.33674935     0.98500
O576        O  0.83976329  0.10484521  0.33963169    -0.82000
O577        O  0.87756915  0.08356531  0.33325662    -0.84700
C578        C  0.87315044  0.07198293  0.31748190     1.03000
O579        O  0.87026698  0.08021016  0.29951963    -0.77500
O580        O  0.86037653  0.10969558  0.26894113    -0.77600
C581        C  0.84054932  0.11307198  0.27018123     1.03000
O582        O  0.86660480  0.15236697  0.27956565    -0.85000
O583        O  0.86488758  0.16272791  0.32169891    -0.82000
C584        C  0.86438915  0.16125347  0.34160412     0.98500
O585        O  0.86276471  0.14317645  0.35031365    -0.82100
O586        O  0.90031232  0.12269227  0.33887083    -0.84700
C587        C  0.91399564  0.11389008  0.32707054     1.03000
O588        O  0.90831349  0.10389325  0.31049509    -0.77500
O589        O  0.89644226  0.13445911  0.28175255    -0.77600
C590        C  0.88596161  0.14985319  0.27457175     1.02900
Cr591      Cr  0.84956007  0.14168256  0.30428492     1.93700
Cr592      Cr  0.86994852  0.11414802  0.33850458     1.93200
Cr593      Cr  0.88267386  0.10803309  0.29176668     1.39100
O594        O  0.86750406  0.12134842  0.31142424    -1.22700
O595        O  0.71648247  0.14830115  0.13916477    -0.85000
O596        O  0.67772696  0.16507748  0.12959957    -0.82000
C597        C  0.65866814  0.16690720  0.12400577     0.98500
O598        O  0.64630951  0.15086949  0.12395196    -0.82000
O599        O  0.66192793  0.12606751  0.09059740    -0.84700
C600        C  0.67558791  0.11528097  0.08048978     1.03000
O601        O  0.68911326  0.10414975  0.09032134    -0.77500
O602        O  0.71675105  0.13298945  0.10806498    -0.77600
C603        C  0.72373721  0.14701649  0.12048906     1.03000
O604        O  0.69635162  0.12074498  0.16922549    -0.85000
O605        O  0.65826092  0.14138192  0.16334774    -0.82000
C606        C  0.64651569  0.12519551  0.16534466     0.98500
O607        O  0.64480195  0.11229174  0.15014729    -0.82100
O608        O  0.65696766  0.08804749  0.11580724    -0.84700
C609        C  0.67021342  0.07472798  0.12304808     1.03000
O610        O  0.68830022  0.08074855  0.12935686    -0.77500
O611        O  0.71911395  0.10727825  0.14644121    -0.77600
C612        C  0.71324749  0.11070175  0.16547524     1.02900
Cr613      Cr  0.68669205  0.14243101  0.14890654     1.93700
Cr614      Cr  0.65434986  0.11962960  0.12079159     1.93200
Cr615      Cr  0.70180410  0.10739822  0.11930372     1.39100
O616        O  0.68089812  0.12304065  0.12956608    -1.22700
O617        O  0.62896438  0.32969718  0.22028958    -0.85000
O618        O  0.64318387  0.32493228  0.17894108    -0.82000
C619        C  0.62630598  0.32115039  0.16868659     0.98500
O620        O  0.61274325  0.33559248  0.16602358    -0.82000
O621        O  0.58960751  0.37203035  0.17382836    -0.84700
C622        C  0.57908236  0.36806437  0.19067274     1.03000
O623        O  0.58827215  0.36662480  0.20825013    -0.77500
O624        O  0.61863414  0.35810611  0.23768341    -0.77600
C625        C  0.62085749  0.33813831  0.23658671     1.03000
O626        O  0.65913256  0.36358261  0.22662645    -0.85000
O627        O  0.66947942  0.36189882  0.18483602    -0.82000
C628        C  0.66810071  0.36362635  0.16503313     0.98500
O629        O  0.65049111  0.36058887  0.15569007    -0.82100
O630        O  0.62881641  0.39641491  0.16690109    -0.84700
C631        C  0.62085645  0.41018285  0.17899363     1.03000
O632        O  0.61019736  0.40461326  0.19516529    -0.77500
O633        O  0.64257819  0.39386861  0.22227069    -0.77600
C634        C  0.65744346  0.38329702  0.23031691     1.02900
Cr635      Cr  0.64867119  0.34624367  0.20205537     1.93700
Cr636      Cr  0.62084446  0.36602911  0.16757500     1.93200
Cr637      Cr  0.61580401  0.37965303  0.21425814     1.39100
O638        O  0.62835842  0.36393443  0.19460103    -1.22700
O639        O  0.66441364  0.18935210  0.37179243    -0.85000
O640        O  0.66045656  0.15221460  0.34908359    -0.82000
C641        C  0.66370190  0.14035225  0.36489255     0.98500
O642        O  0.64902226  0.13737226  0.37820928    -0.82000
O643        O  0.61395812  0.14568373  0.40315566    -0.84700
C644        C  0.62008571  0.15903032  0.41693035     1.03000
O645        O  0.62475675  0.17780503  0.41161540    -0.77500
O646        O  0.64043106  0.21009100  0.38656070    -0.77600
C647        C  0.65976447  0.20524871  0.38299534     1.03000
O648        O  0.63343336  0.20926133  0.34564627    -0.85000
O649        O  0.62532560  0.17085734  0.32705781    -0.82000
C650        C  0.62030610  0.15167164  0.32461952     0.98500
O651        O  0.62215302  0.13850342  0.33984453    -0.82100
O652        O  0.58877399  0.15033623  0.36543519    -0.84700
C653        C  0.57733455  0.16272891  0.37624936     1.03000
O654        O  0.58564879  0.17687429  0.38794405    -0.77500
O655        O  0.60216373  0.20688781  0.36063108    -0.77600
C656        C  0.61440694  0.21544441  0.34725559     1.02900
Cr657      Cr  0.64456255  0.17979221  0.34977372     1.93700
Cr658      Cr  0.61904232  0.14482143  0.37148787     1.93200
Cr659      Cr  0.61406603  0.19151524  0.38552495     1.39100
O660        O  0.62575031  0.17201148  0.36907917    -1.22700
O661        O  0.86640622  0.82631981  0.28367355    -0.85000
O662        O  0.87596123  0.81637950  0.32529887    -0.82000
C663        C  0.87970255  0.81817897  0.34484514     0.98500
O664        O  0.87879278  0.83625839  0.35371276    -0.82000
O665        O  0.91194894  0.85850988  0.33461772    -0.84700
C666        C  0.92218444  0.86693048  0.31945219     1.03000
O667        O  0.91252624  0.87635166  0.30454805    -0.77500
O668        O  0.89617556  0.84410975  0.28065232    -0.77600
C669        C  0.88468230  0.82858637  0.27554268     1.03000
O670        O  0.83441528  0.85468416  0.29893780    -0.85000
O671        O  0.84043830  0.84148215  0.33956210    -0.82000
C672        C  0.83707083  0.85956806  0.34764019     0.98500
O673        O  0.85174007  0.87328748  0.34770492    -0.82100
O674        O  0.88631986  0.89628341  0.33330520    -0.84700
C675        C  0.87836701  0.90718607  0.31846384     1.03000
O676        O  0.87235049  0.89834147  0.30158768    -0.77500
O677        O  0.85659755  0.86758330  0.27514938    -0.77600
C678        C  0.83774013  0.86407651  0.28163763     1.02900
Cr679      Cr  0.85572929  0.83620789  0.31206553     1.93700
Cr680      Cr  0.88166312  0.86549502  0.34059431     1.93200
Cr681      Cr  0.88369339  0.87064814  0.29213082     1.39100
O682        O  0.87381536  0.85749252  0.31486074    -1.22700
O683        O  0.84706401  0.71657939  0.12777509    -0.85000
O684        O  0.83125120  0.67650499  0.12847444    -0.82000
C685        C  0.82979437  0.65671960  0.12625728     0.98500
O686        O  0.84616160  0.64494002  0.12764690    -0.82000
O687        O  0.86859949  0.65387258  0.09134161    -0.84700
C688        C  0.87730440  0.66527566  0.07739140     1.03000
O689        O  0.88908806  0.68073239  0.08261474    -0.77500
O690        O  0.86019445  0.71097580  0.09613426    -0.77600
C691        C  0.84645223  0.71951425  0.10796552     1.03000
O692        O  0.87748588  0.70482499  0.15920562    -0.85000
O693        O  0.85778757  0.66614769  0.16377697    -0.82000
C694        C  0.87316791  0.65362767  0.16663776     0.98500
O695        O  0.88552947  0.64908587  0.15155164    -0.82100
O696        O  0.90882570  0.65542706  0.11485846    -0.84700
C697        C  0.92145485  0.67104186  0.11764817     1.03000
O698        O  0.91449095  0.68972281  0.11917237    -0.77500
O699        O  0.88812861  0.72232310  0.13095894    -0.77600
C700        C  0.88655675  0.72071192  0.15098665     1.02900
Cr701      Cr  0.85482728  0.69021239  0.14342063     1.93700
Cr702      Cr  0.87709584  0.65292828  0.12150112     1.93200
Cr703      Cr  0.88696415  0.69944649  0.10841112     1.39100
O704        O  0.87314315  0.68074264  0.12445738    -1.22700
O705        O  0.71407714  0.86011456  0.16588998    -0.85000
O706        O  0.67230321  0.84687863  0.16882604    -0.82000
C707        C  0.66286012  0.86440675  0.17162089     0.98500
O708        O  0.66100012  0.87735135  0.15653953    -0.82000
O709        O  0.67009175  0.89887413  0.11977471    -0.84700
C710        C  0.68642386  0.90952219  0.12503879     1.03000
O711        O  0.70404201  0.90045345  0.12746337    -0.77500
O712        O  0.73301470  0.87026656  0.13835325    -0.77600
C713        C  0.73071953  0.86836038  0.15822698     1.03000
O714        O  0.72197293  0.82921150  0.13327943    -0.85000
O715        O  0.67976227  0.81918477  0.13332444    -0.82000
C716        C  0.65985534  0.82064629  0.13205994     0.98500
O717        O  0.65097905  0.83876695  0.13295841    -0.82100
O718        O  0.66415882  0.85947041  0.09632128    -0.84700
C719        C  0.67705200  0.86736683  0.08309925     1.03000
O720        O  0.69341941  0.87729864  0.08938955    -0.77500
O721        O  0.72010642  0.84525483  0.10246900    -0.77600
C722        C  0.72683011  0.83020986  0.11376929     1.02900
Cr723      Cr  0.69653089  0.84036119  0.14893148     1.93700
Cr724      Cr  0.66350157  0.86802198  0.12659263     1.93200
Cr725      Cr  0.71100282  0.87245508  0.11546662     1.39100
O726        O  0.69034065  0.86024255  0.13022565    -1.22700
O727        O  0.64988748  0.76869213  0.34285795    -0.85000
O728        O  0.64019409  0.80720982  0.32580310    -0.82000
C729        C  0.63430675  0.82617845  0.32395768     0.98500
O730        O  0.63422580  0.83857535  0.33993549    -0.82000
O731        O  0.60062887  0.82329425  0.36381182    -0.84700
C732        C  0.58967008  0.80988076  0.37398788     1.03000
O733        O  0.59864923  0.79554877  0.38498641    -0.77500
O734        O  0.61820966  0.76743025  0.35733030    -0.77600
C735        C  0.63177116  0.76019515  0.34447628     1.03000
O736        O  0.67871766  0.78901070  0.37104574    -0.85000
O737        O  0.67309031  0.82703423  0.35004267    -0.82000
C738        C  0.67501241  0.83806080  0.36664294     0.98500
O739        O  0.65956375  0.83956641  0.37930724    -0.82100
O740        O  0.62442007  0.82785378  0.40250143    -0.84700
C741        C  0.63165175  0.81439940  0.41556151     1.03000
O742        O  0.63747969  0.79629456  0.40936040    -0.77500
O743        O  0.65579518  0.76592484  0.38394810    -0.77600
C744        C  0.67490776  0.77206894  0.38101443     1.02900
Cr745      Cr  0.65900497  0.79845713  0.34878613     1.93700
Cr746      Cr  0.63037484  0.83049777  0.37108234     1.93200
Cr747      Cr  0.62821160  0.78290302  0.38283349     1.39100
O748        O  0.63894805  0.80392643  0.36758409    -1.22700
O749        O  0.79971959  0.65493669  0.37388608    -0.85000
O750        O  0.83981574  0.65867724  0.35710733    -0.82000
C751        C  0.85268819  0.65972801  0.37245627     0.98500
O752        O  0.85663795  0.64360429  0.38363296    -0.82000
O753        O  0.84748095  0.60597209  0.40425961    -0.84700
C754        C  0.83258996  0.61028860  0.41721350     1.03000
O755        O  0.81403486  0.61414765  0.41066446    -0.77500
O756        O  0.78166997  0.62683964  0.38377570    -0.77600
C757        C  0.78339200  0.64685199  0.38230304     1.03000
O758        O  0.78899296  0.62410926  0.34220267    -0.85000
O759        O  0.82996059  0.62524356  0.32758545    -0.82000
C760        C  0.84987131  0.62325485  0.32695603     0.98500
O761        O  0.86049665  0.62208037  0.34392006    -0.82100
O762        O  0.84822599  0.58437735  0.36355412    -0.84700
C763        C  0.83666421  0.57113786  0.37326044     1.03000
O764        O  0.82174547  0.57754878  0.38514983    -0.77500
O765        O  0.79324008  0.59231934  0.35570344    -0.77600
C766        C  0.78498497  0.60440231  0.34213758     1.02900
Cr767      Cr  0.81534428  0.63921274  0.35158416     1.93700
Cr768      Cr  0.85107223  0.61427135  0.37353334     1.93200
Cr769      Cr  0.80413697  0.60391845  0.38283605     1.39100
O770        O  0.82360322  0.61930953  0.36946878    -1.22700
O771        O  0.67039258  0.61670278  0.21801229    -0.85000
O772        O  0.67152086  0.63927622  0.18063671    -0.82000
C773        C  0.67350899  0.62461833  0.16701652     0.98500
O774        O  0.65783358  0.61296477  0.16239479    -0.82000
O775        O  0.62072895  0.59007099  0.16898971    -0.84700
C776        C  0.62629624  0.57554571  0.18176032     1.03000
O777        O  0.63153369  0.58004355  0.20051912    -0.77500
O778        O  0.64354215  0.60304627  0.23557888    -0.77600
C779        C  0.66332424  0.60544118  0.23301592     1.03000
O780        O  0.63845843  0.64503156  0.23455753    -0.85000
O781        O  0.63710097  0.66502778  0.19593582    -0.82000
C782        C  0.63413482  0.66810122  0.17643500     0.98500
O783        O  0.63409156  0.65254772  0.16357383    -0.82100
O784        O  0.59778411  0.62954212  0.17415692    -0.84700
C785        C  0.58565369  0.61827304  0.18559343     1.03000
O786        O  0.59322937  0.60434589  0.19779128    -0.77500
O787        O  0.60734041  0.63005872  0.22968028    -0.77600
C788        C  0.61896621  0.64307910  0.23940488     1.02900
Cr789      Cr  0.65294978  0.64018762  0.20651368     1.93700
Cr790      Cr  0.62802491  0.62137462  0.16919997     1.93200
Cr791      Cr  0.61995657  0.60557455  0.21453647     1.39100
O792        O  0.63363746  0.62242259  0.19670515    -1.22700
O793        O  0.21903368  0.32719483  0.37432941    -0.85000
O794        O  0.17839154  0.31264231  0.37360626    -0.82000
C795        C  0.15843836  0.31191506  0.37485701     0.98500
O796        O  0.14766927  0.32876352  0.37254124    -0.82000
O797        O  0.15831266  0.35273380  0.40804382    -0.84700
C798        C  0.16958713  0.36342431  0.42071299     1.03000
O799        O  0.18430503  0.37537797  0.41367429    -0.77500
O800        O  0.21512824  0.34645686  0.40317000    -0.77600
C801        C  0.22319595  0.33082028  0.39366520     1.03000
O802        O  0.20969640  0.35462936  0.33887290    -0.85000
O803        O  0.16941994  0.33740717  0.33600125    -0.82000
C804        C  0.15792083  0.35349223  0.33224470     0.98500
O805        O  0.15366381  0.36657025  0.34680240    -0.82100
O806        O  0.15931908  0.39092541  0.38259334    -0.84700
C807        C  0.17383542  0.40366093  0.37673122     1.03000
O808        O  0.19255122  0.39704209  0.37386240    -0.77500
O809        O  0.22610002  0.36962897  0.36560453    -0.77600
C810        C  0.22530369  0.36491384  0.34607996     1.02900
Cr811      Cr  0.19340654  0.33457088  0.35699173     1.93700
Cr812      Cr  0.15678630  0.35939631  0.37729155     1.93200
Cr813      Cr  0.20302385  0.37100765  0.38794126     1.39100
O814        O  0.18446120  0.35496801  0.37408829    -1.22700
O815        O  0.33494096  0.35055793  0.21392095    -0.85000
O816        O  0.32279241  0.35747177  0.17217756    -0.82000
C817        C  0.32373933  0.36060445  0.15242077     0.98500
O818        O  0.34141557  0.35995491  0.14275632    -0.82000
O819        O  0.36215933  0.39526215  0.15827197    -0.84700
C820        C  0.37063153  0.40721438  0.17194494     1.03000
O821        O  0.38020090  0.39946452  0.18788247    -0.77500
O822        O  0.35020204  0.38176147  0.21459750    -0.77600
C823        C  0.33601820  0.36921215  0.22121470     1.03000
O824        O  0.36505497  0.32031989  0.19901685    -0.85000
O825        O  0.34936707  0.32298997  0.15870064    -0.82000
C826        C  0.36701251  0.32040109  0.14937997     0.98500
O827        O  0.38014952  0.33555893  0.14847395    -0.82100
O828        O  0.40121491  0.37253847  0.15943288    -0.84700
C829        C  0.41342738  0.36715125  0.17430859     1.03000
O830        O  0.40596034  0.36185196  0.19218062    -0.77500
O831        O  0.37723427  0.34466095  0.22092760    -0.77600
C832        C  0.37448748  0.32526407  0.21588102     1.02900
Cr833      Cr  0.34447644  0.33939133  0.18559349     1.93700
Cr834      Cr  0.37075387  0.36529182  0.15418753     1.93200
Cr835      Cr  0.37742680  0.37101853  0.20230884     1.39100
O836        O  0.36430958  0.35871671  0.18077577    -1.22700
O837        O  0.36399768  0.20517121  0.33537028    -0.85000
O838        O  0.35404556  0.16280287  0.33208096    -0.82000
C839        C  0.37130346  0.15262218  0.33103153     0.98500
O840        O  0.38309687  0.15084270  0.34705749    -0.82000
O841        O  0.40268374  0.16450907  0.38383787    -0.84700
C842        C  0.41241678  0.18172552  0.37956647     1.03000
O843        O  0.40229938  0.19857007  0.37585483    -0.77500
O844        O  0.37011192  0.22506002  0.36315993    -0.77600
C845        C  0.37020110  0.22250643  0.34329025     1.03000
O846        O  0.33022138  0.21022599  0.36600872    -0.85000
O847        O  0.32328647  0.16757024  0.36544038    -0.82000
C848        C  0.32619904  0.14811216  0.36914776     0.98500
O849        O  0.34485807  0.14060559  0.37024093    -0.82100
O850        O  0.36331381  0.15642917  0.40679175    -0.84700
C851        C  0.37062853  0.16999974  0.41953008     1.03000
O852        O  0.37876071  0.18702150  0.41261998    -0.77500
O853        O  0.34444330  0.20997424  0.39775194    -0.77600
C854        C  0.32939502  0.21483351  0.38550358     1.02900
Cr855      Cr  0.34444433  0.18604344  0.35127881     1.93700
Cr856      Cr  0.37274944  0.15521949  0.37660513     1.93200
Cr857      Cr  0.37311603  0.20335338  0.38619130     1.39100
O858        O  0.36346578  0.18142510  0.37132577    -1.22700
O859        O  0.13647033  0.15580778  0.30334598    -0.85000
O860        O  0.14842531  0.14795843  0.34397029    -0.82000
C861        C  0.13083756  0.15217000  0.35284966     0.98500
O862        O  0.11586895  0.13871714  0.35234337    -0.82000
O863        O  0.09001194  0.10598712  0.33687392    -0.84700
C864        C  0.07995611  0.11466759  0.32176554     1.03000
O865        O  0.08983219  0.12145245  0.30578749    -0.77500
O866        O  0.12139124  0.13538170  0.27947491    -0.77600
C867        C  0.12650427  0.15367374  0.28623556     1.03000
O868        O  0.16250127  0.12162591  0.28816247    -0.85000
O869        O  0.17093411  0.11089751  0.32931629    -0.82000
C870        C  0.16906686  0.10761366  0.34891367     0.98500
O871        O  0.15087097  0.10899042  0.35769526    -0.82100
O872        O  0.12619576  0.07778484  0.33753559    -0.84700
C873        C  0.11700639  0.06872681  0.32211803     1.03000
O874        O  0.10850016  0.07959570  0.30748793    -0.77500
O875        O  0.14147576  0.09430453  0.28322412    -0.77600
C876        C  0.15826800  0.10430044  0.27893204     1.02900
Cr877      Cr  0.15290314  0.13275078  0.31635755     1.93700
Cr878      Cr  0.12138137  0.10841038  0.34433364     1.93200
Cr879      Cr  0.11633076  0.10828020  0.29578410     1.39100
O880        O  0.13021300  0.11634274  0.31873290    -1.22700
O881        O  0.28294028  0.12141512  0.16619429    -0.85000
O882        O  0.32570374  0.12303384  0.17486951    -0.82000
C883        C  0.34560022  0.12199441  0.17255946     0.98500
O884        O  0.35387645  0.12230985  0.15410762    -0.82000
O885        O  0.34214989  0.08418919  0.13567472    -0.84700
C886        C  0.32969881  0.06984936  0.12923517     1.03000
O887        O  0.31223239  0.07474677  0.12061197    -0.77500
O888        O  0.28753690  0.08933900  0.15370290    -0.77600
C889        C  0.27966867  0.10163468  0.16734234     1.03000
O890        O  0.28897607  0.15191079  0.13310768    -0.85000
O891        O  0.33109550  0.15713166  0.14537523    -0.82000
C892        C  0.34008776  0.15955583  0.12756342     0.98500
O893        O  0.34194446  0.14400837  0.11508283    -0.82100
O894        O  0.33319159  0.10556880  0.09571667    -0.84700
C895        C  0.31579531  0.10783323  0.08576061     1.03000
O896        O  0.29849273  0.11003459  0.09560977    -0.77500
O897        O  0.27079171  0.12279545  0.12665741    -0.77600
C898        C  0.27211974  0.14293678  0.12690498     1.02900
Cr899      Cr  0.30774035  0.13689407  0.15341923     1.93700
Cr900      Cr  0.34085174  0.11420773  0.12575839     1.93200
Cr901      Cr  0.29383121  0.10045984  0.12488431     1.39100
O902        O  0.31420857  0.11717771  0.13452438    -1.22700
O903        O  0.15548855  0.26620227  0.13770039    -0.85000
O904        O  0.16778832  0.30800833  0.13296063    -0.82000
C905        C  0.16668682  0.32774796  0.12963265     0.98500
O906        O  0.14912229  0.33739213  0.13102940    -0.82000
O907        O  0.12656046  0.32312482  0.09611930    -0.84700
C908        C  0.11701210  0.30969388  0.08462404     1.03000
O909        O  0.10754720  0.29397432  0.09284735    -0.77500
O910        O  0.13937520  0.26683641  0.10700187    -0.77600
C911        C  0.15407869  0.25990919  0.11873870     1.03000
O912        O  0.12639437  0.27837894  0.17009092    -0.85000
O913        O  0.14235940  0.31947717  0.16873045    -0.82000
C914        C  0.12521716  0.32931615  0.17213353     0.98500
O915        O  0.11173125  0.33117690  0.15745942    -0.82100
O916        O  0.08878466  0.32097244  0.12168132    -0.84700
C917        C  0.07708856  0.30597863  0.12813318     1.03000
O918        O  0.08481788  0.28785272  0.13183364    -0.77500
O919        O  0.11413930  0.25826132  0.14438383    -0.77600
C920        C  0.11689898  0.26178744  0.16392787     1.02900
Cr921      Cr  0.14645138  0.29351988  0.15092852     1.93700
Cr922      Cr  0.11959657  0.32618574  0.12701093     1.93200
Cr923      Cr  0.11251063  0.27834054  0.11988773     1.39100
O924        O  0.12617958  0.29934122  0.13248472    -1.22700
O925        O  0.33804615  0.78648430  0.37176909    -0.85000
O926        O  0.34040109  0.82777592  0.35917730    -0.82000
C927        C  0.33642497  0.83676500  0.37672848     0.98500
O928        O  0.35054239  0.83752158  0.39093148    -0.82000
O929        O  0.38606964  0.82593477  0.41478168    -0.84700
C930        C  0.37961271  0.81003149  0.42538696     1.03000
O931        O  0.37479638  0.79304661  0.41609597    -0.77500
O932        O  0.36173800  0.76505205  0.38570113    -0.77600
C933        C  0.34255219  0.76970790  0.38157665     1.03000
O934        O  0.37206117  0.77512059  0.34352704    -0.85000
O935        O  0.37758538  0.81730726  0.33448180    -0.82000
C936        C  0.37908973  0.83715847  0.33619786     0.98500
O937        O  0.37758191  0.84581242  0.35435441    -0.82100
O938        O  0.41185395  0.82948328  0.37689118    -0.84700
C939        C  0.42345358  0.81523089  0.38492348     1.03000
O940        O  0.41515761  0.79933258  0.39429291    -0.77500
O941        O  0.40092110  0.77327564  0.36272515    -0.77600
C942        C  0.39048965  0.76779238  0.34666132     1.02900
Cr943      Cr  0.35843090  0.80198360  0.35386740     1.93700
Cr944      Cr  0.38114768  0.83275522  0.38366752     1.93200
Cr945      Cr  0.38727681  0.78442532  0.38873338     1.39100
O946        O  0.37573925  0.80630303  0.37543796    -1.22700
O947        O  0.15640144  0.85003748  0.27636744    -0.85000
O948        O  0.17678029  0.84876014  0.31424760    -0.82000
C949        C  0.18045614  0.85220973  0.33354412     0.98500
O950        O  0.16542024  0.85202832  0.34718523    -0.82000
O951        O  0.14146751  0.88797345  0.34036075    -0.84700
C952        C  0.13051203  0.90130475  0.33028714     1.03000
O953        O  0.11752005  0.89505241  0.31636609    -0.77500
O954        O  0.14458227  0.88173760  0.28436310    -0.77600
C955        C  0.15696928  0.86997246  0.27389223     1.03000
O956        O  0.12706713  0.81841995  0.29150159    -0.85000
O957        O  0.15116241  0.81418759  0.32819338    -0.82000
C958        C  0.13715896  0.81181486  0.34241152     0.98500
O959        O  0.12562483  0.82720046  0.34789869    -0.82100
O960        O  0.10195383  0.86347381  0.34342312    -0.84700
C961        C  0.08768189  0.85953407  0.32968256     1.03000
O962        O  0.09246840  0.85768959  0.31029899    -0.77500
O963        O  0.11574335  0.84688270  0.27507248    -0.77600
C964        C  0.11693725  0.82683595  0.27645467     1.02900
Cr965      Cr  0.15148027  0.83423056  0.30353049     1.93700
Cr966      Cr  0.13368914  0.85737133  0.34270615     1.93200
Cr967      Cr  0.11876924  0.86921315  0.29780348     1.39100
O968        O  0.13458592  0.85358391  0.31486649    -1.22700
O969        O  0.30210274  0.81450124  0.13950025    -0.85000
O970        O  0.34158676  0.82177174  0.15484355    -0.82000
C971        C  0.35308007  0.81954589  0.13845457     0.98500
O972        O  0.35492112  0.83436672  0.12506722    -0.82000
O973        O  0.34098165  0.86703694  0.09942947    -0.84700
C974        C  0.32830700  0.85750671  0.08715182     1.03000
O975        O  0.31094445  0.85025247  0.09416083    -0.77500
O976        O  0.28033413  0.83514136  0.12199321    -0.77600
C977        C  0.28591198  0.81682183  0.12811426     1.03000
O978        O  0.28510867  0.84823786  0.16522462    -0.85000
O979        O  0.32543696  0.85760318  0.17857450    -0.82000
C980        C  0.34488094  0.86239824  0.17828354     0.98500
O981        O  0.35511706  0.86225619  0.16097999    -0.82100
O982        O  0.33627335  0.89374670  0.13606501    -0.84700
C983        C  0.32218014  0.90261178  0.12486808     1.03000
O984        O  0.30907743  0.89155630  0.11428352    -0.77500
O985        O  0.28122045  0.87526119  0.14353480    -0.77600
C986        C  0.27579234  0.86522236  0.15996441     1.02900
Cr987      Cr  0.31391343  0.83700330  0.15784904     1.93700
Cr988      Cr  0.34476744  0.86369801  0.13086755     1.93200
Cr989      Cr  0.29715765  0.86238474  0.11973918     1.39100
O990        O  0.31850922  0.85440200  0.13622310    -1.22700
O991        O  0.13614015  0.70470459  0.16302090    -0.85000
O992        O  0.13710655  0.66362367  0.17797131    -0.82000
C993        C  0.13673107  0.64360361  0.17843849     0.98500
O994        O  0.13694239  0.63301070  0.16129009    -0.82000
O995        O  0.09962856  0.64241868  0.13956314    -0.84700
C996        C  0.08607340  0.65360173  0.12995039     1.03000
O997        O  0.09200777  0.66956880  0.11913766    -0.77500
O998        O  0.10493319  0.69923101  0.14876461    -0.77600
C999        C  0.11635994  0.70818722  0.16251341     1.03000
O1000       O  0.16846597  0.69399911  0.13291092    -0.85000
O1001       O  0.17233427  0.65432055  0.15102185    -0.82000
C1002       C  0.17542422  0.64274331  0.13493499     0.98500
O1003       O  0.16050213  0.63914649  0.12212932    -0.82100
O1004       O  0.12316032  0.64498651  0.10017748    -0.84700
C1005       C  0.12738020  0.66008619  0.08753318     1.03000
O1006       O  0.12946904  0.67882880  0.09435511    -0.77500
O1007       O  0.14047404  0.71125318  0.12153348    -0.77600
C1008       C  0.16049950  0.70975626  0.12351492     1.02900
Cr1009     Cr  0.15203643  0.67846984  0.15475404     1.93700
Cr1010     Cr  0.13022016  0.64194532  0.13117312     1.93200
Cr1011     Cr  0.11783887  0.68830794  0.12198909     1.39100
O1012       O  0.13329258  0.66952254  0.13593636    -1.22700
O1013       O  0.37402846  0.65197626  0.22609451    -0.85000
O1014       O  0.37078784  0.66101189  0.18353917    -0.82000
C1015       C  0.37139755  0.65889315  0.16363933     0.98500
O1016       O  0.36995959  0.64059543  0.15520503    -0.82000
O1017       O  0.40820509  0.62200963  0.16412140    -0.84700
C1018       C  0.42327409  0.61668778  0.17606406     1.03000
O1019       O  0.41965223  0.60778434  0.19370193    -0.77500
O1020       O  0.40600554  0.64027449  0.21938000    -0.77600
C1021       C  0.39393447  0.65369642  0.22798184     1.03000
O1022       O  0.34376362  0.61856114  0.22115773    -0.85000
O1023       O  0.33642998  0.63173615  0.17962646    -0.82000
C1024       C  0.33345711  0.61408585  0.17058098     0.98500
O1025       O  0.34867607  0.60133618  0.16822119    -0.82100
O1026       O  0.38743301  0.58204357  0.17438019    -0.84700
C1027       C  0.38631295  0.57192961  0.19178699     1.03000
O1028       O  0.38576533  0.58160123  0.20926691    -0.77500
O1029       O  0.37389742  0.61216078  0.23754350    -0.77600
C1030       C  0.35373395  0.61181805  0.23717428     1.02900
Cr1031     Cr  0.35766051  0.63937364  0.20196166     1.93700
Cr1032     Cr  0.37846979  0.61205608  0.16747009     1.93200
Cr1033     Cr  0.39503018  0.61116973  0.21349376     1.39100
O1034       O  0.37708731  0.62066646  0.19424253    -1.22700
O1035       O  0.23447037  0.61874015  0.35387952    -0.85000
O1036       O  0.19376007  0.61804599  0.33794240    -0.82000
C1037       C  0.17380747  0.61613985  0.33731431     0.98500
O1038       O  0.16298783  0.61585462  0.35431699    -0.82000
O1039       O  0.17487472  0.57918579  0.37605020    -0.84700
C1040       C  0.18698514  0.56686546  0.38624561     1.03000
O1041       O  0.20085291  0.57433208  0.39860459    -0.77500
O1042       O  0.23071392  0.58771375  0.36931681    -0.77600
C1043       C  0.23923593  0.59928601  0.35531395     1.03000
O1044       O  0.22213953  0.65097817  0.38325677    -0.85000
O1045       O  0.18231943  0.65274624  0.36485956    -0.82000
C1046       C  0.17014255  0.65507341  0.38069984     0.98500
O1047       O  0.16658878  0.63977923  0.39320022    -0.82100
O1048       O  0.17416614  0.60291033  0.41551914    -0.84700
C1049       C  0.18832767  0.60849549  0.42863278     1.03000
O1050       O  0.20706646  0.61238180  0.42239664    -0.77500
O1051       O  0.24013587  0.62391787  0.39560622    -0.77600
C1052       C  0.23808884  0.64371222  0.39291716     1.02900
Cr1053     Cr  0.20750225  0.63365242  0.36146757     1.93700
Cr1054     Cr  0.17164493  0.60971522  0.38445112     1.93200
Cr1055     Cr  0.21823739  0.60065838  0.39537822     1.39100
O1056       O  0.19910219  0.61469410  0.38043545    -1.22700
C1057       C  0.28544118  0.59916386  0.31589147     0.19100
C1058       C  0.30549807  0.60889690  0.31555275    -0.19000
C1059       C  0.31762729  0.60928803  0.29698194    -0.11300
C1060       C  0.30981742  0.60008562  0.27820854     0.21300
C1061       C  0.28999848  0.58976175  0.27868722    -0.20600
C1062       C  0.27795684  0.58909427  0.29744735    -0.11500
C1063       C  0.32109870  0.60310167  0.25767497    -0.15600
C1064       C  0.34235207  0.60509730  0.25653249    -0.29500
C1065       C  0.27134620  0.60337727  0.33422783    -0.03800
C1066       C  0.25526076  0.59073418  0.34051837    -0.40300
H1067       H  0.31137719  0.61710772  0.32946901     0.12500
H1068       H  0.33251424  0.61794970  0.29710126     0.12100
H1069       H  0.28355052  0.58279587  0.26436485     0.11500
H1070       H  0.26227092  0.58197419  0.29709947     0.11800
H1071       H  0.31165624  0.60436051  0.24332436     0.14500
H1072       H  0.35191044  0.60246717  0.27060113     0.13300
H1073       H  0.27367860  0.61846488  0.34234708     0.11000
H1074       H  0.25331930  0.57484508  0.33408565     0.13000
C1075       C  0.27662452  0.62167119  0.15044117     0.19100
C1076       C  0.26731186  0.63408309  0.13449851    -0.19000
C1077       C  0.24518949  0.63504736  0.13248352    -0.11300
C1078       C  0.23200583  0.62400530  0.14679867     0.21300
C1079       C  0.24133537  0.61101587  0.16227587    -0.20600
C1080       C  0.26346886  0.60961412  0.16393177    -0.11500
C1081       C  0.20898564  0.62867926  0.14828129    -0.15600
C1082       C  0.19672413  0.63355914  0.13153624    -0.29500
C1083       C  0.29953361  0.62439239  0.15499075    -0.03800
C1084       C  0.31206371  0.60889729  0.16260379    -0.40300
H1085       H  0.27717178  0.64376972  0.12416791     0.12500
H1086       H  0.23845841  0.64562518  0.12075938     0.12100
H1087       H  0.23145931  0.60266551  0.17369959     0.11500
H1088       H  0.27020530  0.60034274  0.17671017     0.11800
H1089       H  0.20203590  0.62910902  0.16412289     0.14500
H1090       H  0.20264995  0.63163521  0.11543231     0.13300
H1091       H  0.30621536  0.64018915  0.15265124     0.11000
H1092       H  0.30641900  0.59259053  0.16343672     0.13000
C1093       C  0.16202829  0.62100754  0.27763216     0.19100
C1094       C  0.16952629  0.61185279  0.25872468    -0.19000
C1095       C  0.16112180  0.61798577  0.23910323    -0.11300
C1096       C  0.14532124  0.63376488  0.23803611     0.21300
C1097       C  0.13776705  0.64280674  0.25696220    -0.20600
C1098       C  0.14586580  0.63639180  0.27656812    -0.11500
C1099       C  0.13853209  0.64311596  0.21751970    -0.15600
C1100       C  0.13851304  0.63242826  0.19900504    -0.29500
C1101       C  0.17280323  0.61612740  0.29799250    -0.03800
C1102       C  0.16254489  0.61638287  0.31677905    -0.40300
H1103       H  0.18223739  0.60026675  0.25911971     0.12500
H1104       H  0.16780889  0.61117413  0.22478961     0.12100
H1105       H  0.12594202  0.65529650  0.25653218     0.11500
H1106       H  0.14020799  0.64427497  0.29077491     0.11800
H1107       H  0.13428297  0.65985334  0.21759139     0.14500
H1108       H  0.14164286  0.61546850  0.19876919     0.13300
H1109       H  0.18979297  0.61299041  0.29752726     0.11000
H1110       H  0.14537771  0.61827642  0.31719397     0.13000
C1111       C  0.20997763  0.74562416  0.11489479     0.19100
C1112       C  0.23200945  0.74205672  0.11382806    -0.19000
C1113       C  0.24635508  0.75907262  0.11272831    -0.11300
C1114       C  0.23896364  0.78017308  0.11295398     0.21300
C1115       C  0.21692366  0.78373179  0.11297735    -0.20600
C1116       C  0.20256326  0.76671329  0.11408775    -0.11500
C1117       C  0.25359194  0.79881709  0.11426516    -0.15600
C1118       C  0.27301810  0.79777457  0.12314659    -0.29500
C1119       C  0.19559579  0.72713517  0.11882275    -0.03800
C1120       C  0.17431560  0.72741700  0.11616337    -0.40300
H1121       H  0.23819385  0.72600667  0.11429935     0.12500
H1122       H  0.26318068  0.75558975  0.11198108     0.12100
H1123       H  0.21078001  0.79980351  0.11307375     0.11500
H1124       H  0.18579671  0.77030216  0.11525228     0.11800
H1125       H  0.24733014  0.81427257  0.10984121     0.14500
H1126       H  0.27902848  0.78267904  0.12884817     0.13300
H1127       H  0.20291626  0.71274263  0.12489498     0.11000
H1128       H  0.16658813  0.74119379  0.10935396     0.13000
C1129       C  0.37498271  0.71769782  0.14827150     0.19100
C1130       C  0.38797225  0.73504002  0.15371810    -0.19000
C1131       C  0.38189774  0.75581445  0.14865608    -0.11300
C1132       C  0.36246096  0.75955805  0.13843150     0.21300
C1133       C  0.35002158  0.74218793  0.13203849    -0.20600
C1134       C  0.35629186  0.72142495  0.13669852    -0.11500
C1135       C  0.35298149  0.78103425  0.13775310    -0.15600
C1136       C  0.36408818  0.79915911  0.13532761    -0.29500
C1137       C  0.37917948  0.69671042  0.15808860    -0.03800
C1138       C  0.37200679  0.67813358  0.15025628    -0.40300
H1139       H  0.40229192  0.73258067  0.16289242     0.12500
H1140       H  0.39156520  0.76893550  0.15418659     0.12100
H1141       H  0.33483997  0.74475481  0.12438837     0.11500
H1142       H  0.34562710  0.70852942  0.13269456     0.11800
H1143       H  0.33583710  0.78199532  0.14001062     0.14500
H1144       H  0.38087780  0.79894947  0.13122279     0.13300
H1145       H  0.38722244  0.69676340  0.17333733     0.11000
H1146       H  0.36533678  0.67729078  0.13441379     0.13000
C1147       C  0.11248628  0.75370224  0.20272916     0.19100
C1148       C  0.11953256  0.77482002  0.20211059    -0.19000
C1149       C  0.11727096  0.78794650  0.21980595    -0.11300
C1150       C  0.10829165  0.78004259  0.23872020     0.21300
C1151       C  0.10068237  0.75904483  0.23917712    -0.20600
C1152       C  0.10249285  0.74601389  0.22120390    -0.11500
C1153       C  0.10971431  0.79249938  0.25866913    -0.15600
C1154       C  0.10879632  0.81383568  0.25877686    -0.29500
C1155       C  0.11899979  0.73932860  0.18535024    -0.03800
C1156       C  0.10709201  0.72321775  0.17794365    -0.40300
H1157       H  0.12760859  0.78092205  0.18814823     0.12500
H1158       H  0.12389616  0.80382311  0.21906659     0.12100
H1159       H  0.09402890  0.75251909  0.25366987     0.11500
H1160       H  0.09740085  0.72959387  0.22222321     0.11800
H1161       H  0.11338594  0.78401430  0.27321497     0.14500
H1162       H  0.10394480  0.82221187  0.24452486     0.13300
H1163       H  0.13459690  0.74217727  0.17834299     0.11000
H1164       H  0.09079332  0.72104074  0.18331983     0.13000
C1165       C  0.15000383  0.71084169  0.36850852     0.19100
C1166       C  0.13397647  0.71983974  0.35596397    -0.19000
C1167       C  0.13309430  0.74185984  0.35287055    -0.11300
C1168       C  0.14870644  0.75514334  0.36172484     0.21300
C1169       C  0.16434687  0.74620661  0.37477107    -0.20600
C1170       C  0.16480325  0.72427931  0.37843786    -0.11500
C1171       C  0.15090587  0.77756516  0.35488959    -0.15600
C1172       C  0.13431019  0.79075530  0.35239150    -0.29500
C1173       C  0.15365067  0.68762379  0.36766873    -0.03800
C1174       C  0.16048828  0.67611300  0.38426837    -0.40300
H1175       H  0.12268520  0.70972170  0.34782100     0.12500
H1176       H  0.12115959  0.74830441  0.34234971     0.12100
H1177       H  0.17671597  0.75613154  0.38147108     0.11500
H1178       H  0.17767669  0.71770056  0.38770166     0.11800
H1179       H  0.16687595  0.78332811  0.35145719     0.14500
H1180       H  0.11847649  0.78590315  0.35741847     0.13300
H1181       H  0.15219055  0.68000661  0.35224481     0.11000
H1182       H  0.16065633  0.68285152  0.40013729     0.13000
C1183       C  0.23478329  0.87108476  0.20463449     0.19100
C1184       C  0.23553560  0.87439023  0.22663477    -0.19000
C1185       C  0.21674667  0.87530728  0.23856107    -0.11300
C1186       C  0.19699154  0.87228728  0.22866466     0.21300
C1187       C  0.19621122  0.86946869  0.20663829    -0.20600
C1188       C  0.21492603  0.86916476  0.19464062    -0.11500
C1189       C  0.17776887  0.86791394  0.24138605    -0.15600
C1190       C  0.17242623  0.87897469  0.25879962    -0.29500
C1191       C  0.25470666  0.86694307  0.19281475    -0.03800
C1192       C  0.25746573  0.87270104  0.17246929    -0.40300
H1193       H  0.25069583  0.87557471  0.23466309     0.12500
H1194       H  0.21773622  0.87687687  0.25564828     0.12100
H1195       H  0.18114298  0.86664063  0.19884110     0.11500
H1196       H  0.21389345  0.86603268  0.17778135     0.11800
H1197       H  0.16837803  0.85408389  0.23694972     0.14500
H1198       H  0.18056070  0.89369557  0.26272731     0.13300
H1199       H  0.26727584  0.85840878  0.20097394     0.11000
H1200       H  0.24577554  0.88267188  0.16467175     0.13000
C1201       C  0.37570960  0.85138792  0.27724181     0.19100
C1202       C  0.38487633  0.84404784  0.25828496    -0.19000
C1203       C  0.37647830  0.84995473  0.23865493    -0.11300
C1204       C  0.35843160  0.86309616  0.23758489     0.21300
C1205       C  0.34965156  0.87099071  0.25651619    -0.20600
C1206       C  0.35830921  0.86537878  0.27617770    -0.11500
C1207       C  0.34679204  0.86603475  0.21732853    -0.15600
C1208       C  0.35654815  0.86585568  0.19828729    -0.29500
C1209       C  0.38208623  0.84126123  0.29750692    -0.03800
C1210       C  0.37955836  0.85029302  0.31673344    -0.40300
H1211       H  0.39799638  0.83292088  0.25869316     0.12500
H1212       H  0.38327821  0.84302769  0.22444919     0.12100
H1213       H  0.33554524  0.88083607  0.25611800     0.11500
H1214       H  0.35044151  0.87082566  0.29048213     0.11800
H1215       H  0.32953663  0.86683881  0.21810364     0.14500
H1216       H  0.37380188  0.86624944  0.19741113     0.13300
H1217       H  0.38745744  0.82486925  0.29657736     0.11000
H1218       H  0.37536711  0.86697128  0.31804822     0.13000
C1219       C  0.39734171  0.73042095  0.29903516     0.19100
C1220       C  0.39798440  0.73242738  0.27684422    -0.19000
C1221       C  0.39878199  0.71434411  0.26390466    -0.11300
C1222       C  0.39832442  0.69398579  0.27303704     0.21300
C1223       C  0.39851552  0.69199851  0.29518524    -0.20600
C1224       C  0.39832308  0.71003352  0.30810358    -0.11500
C1225       C  0.39358852  0.67501696  0.26008758    -0.15600
C1226       C  0.40255034  0.67097747  0.24114184    -0.29500
C1227       C  0.39239424  0.74926480  0.31227191    -0.03800
C1228       C  0.39924808  0.75144984  0.33232845    -0.40300
H1229       H  0.39697873  0.74796872  0.26952486     0.12500
H1230       H  0.39814034  0.71624765  0.24683629     0.12100
H1231       H  0.39781683  0.67642676  0.30249745     0.11500
H1232       H  0.39734335  0.70791850  0.32512958     0.11800
H1233       H  0.38166671  0.66406867  0.26628600     0.14500
H1234       H  0.41572251  0.68053096  0.23526048     0.13300
H1235       H  0.38195915  0.76125843  0.30558609     0.11000
H1236       H  0.41096693  0.74051491  0.33865581     0.13000
C1237       C  0.23449624  0.85981556  0.36214953     0.19100
C1238       C  0.24379979  0.85085172  0.38030683    -0.19000
C1239       C  0.26603278  0.84902051  0.38190432    -0.11300
C1240       C  0.27931699  0.85627263  0.36535224     0.21300
C1241       C  0.27003656  0.86674791  0.34807942    -0.20600
C1242       C  0.24797315  0.86878269  0.34661090    -0.11500
C1243       C  0.30224158  0.85054469  0.36380393    -0.15600
C1244       C  0.31503959  0.84610400  0.38034043    -0.29500
C1245       C  0.21098258  0.85818745  0.35880421    -0.03800
C1246       C  0.20302371  0.85576710  0.33913603    -0.40300
H1247       H  0.23384366  0.84409254  0.39265935     0.12500
H1248       H  0.27263015  0.84070939  0.39538057     0.12100
H1249       H  0.27988297  0.87269385  0.33521811     0.11500
H1250       H  0.24151807  0.87676635  0.33286660     0.11800
H1251       H  0.30878028  0.84925872  0.34784487     0.14500
H1252       H  0.30958209  0.84858712  0.39651645     0.13300
H1253       H  0.20044516  0.85712917  0.37247252     0.11000
H1254       H  0.21395932  0.85531720  0.32575779     0.13000
C1255       C  0.27413697  0.69286275  0.39918413     0.19100
C1256       C  0.27090699  0.71471989  0.40192299    -0.19000
C1257       C  0.28811778  0.72879409  0.40199754    -0.11300
C1258       C  0.30899187  0.72131947  0.39882385     0.21300
C1259       C  0.31235268  0.69935298  0.39720342    -0.20600
C1260       C  0.29511637  0.68523003  0.39724665    -0.11500
C1261       C  0.32729985  0.73606398  0.39586847    -0.15600
C1262       C  0.32481260  0.75543021  0.38723765    -0.29500
C1263       C  0.25528622  0.67890102  0.39623962    -0.03800
C1264       C  0.25557125  0.65783421  0.39967009    -0.40300
H1265       H  0.25494659  0.72098580  0.40357178     0.12500
H1266       H  0.28493600  0.74554308  0.40416511     0.12100
H1267       H  0.32826484  0.69318233  0.39485467     0.11500
H1268       H  0.29827622  0.66854056  0.39466140     0.11800
H1269       H  0.34323453  0.73021113  0.39897848     0.14500
H1270       H  0.30905672  0.76080890  0.38280387     0.13300
H1271       H  0.24082378  0.68620883  0.39033146     0.11000
H1272       H  0.26951634  0.65040869  0.40650766     0.13000
C1273       C  0.32844981  0.00824944  0.12482946     0.19100
C1274       C  0.31974905  0.99443104  0.10968749    -0.19000
C1275       C  0.32188629  0.97241927  0.11164906    -0.11300
C1276       C  0.33246203  0.96347709  0.12916353     0.21300
C1277       C  0.34169652  0.97730704  0.14407394    -0.20600
C1278       C  0.33968049  0.99946057  0.14200890    -0.11500
C1279       C  0.33428768  0.93992704  0.13207563    -0.15600
C1280       C  0.32068549  0.92603125  0.12304498    -0.29500
C1281       C  0.32415256  0.03145832  0.12260431    -0.03800
C1282       C  0.33564701  0.04712880  0.13166705    -0.40300
H1283       H  0.31116647  0.00071466  0.09620666     0.12500
H1284       H  0.31530797  0.96257761  0.09923755     0.12100
H1285       H  0.35010724  0.97093902  0.15761649     0.11500
H1286       H  0.34636177  0.00953544  0.15419552     0.11800
H1287       H  0.34682773  0.93392759  0.14224672     0.14500
H1288       H  0.30747059  0.93188959  0.11374658     0.13300
H1289       H  0.31085039  0.03585499  0.11256397     0.11000
H1290       H  0.34968392  0.04337868  0.14088324     0.13000
C1291       C  0.19645967  0.21569533  0.12054479     0.19100
C1292       C  0.19735898  0.19674805  0.13223361    -0.19000
C1293       C  0.21521938  0.18361916  0.13115220    -0.11300
C1294       C  0.23289345  0.18935279  0.11863962     0.21300
C1295       C  0.23198253  0.20825372  0.10675654    -0.20600
C1296       C  0.21378842  0.22120472  0.10745546    -0.11500
C1297       C  0.25295528  0.17681288  0.11958694    -0.15600
C1298       C  0.25291134  0.15552164  0.12189088    -0.29500
C1299       C  0.17888942  0.23073246  0.12519871    -0.03800
C1300       C  0.16970435  0.24396223  0.11109444    -0.40300
H1301       H  0.18440350  0.19240331  0.14278554     0.12500
H1302       H  0.21558875  0.16953495  0.14100871     0.12100
H1303       H  0.24552006  0.21318930  0.09725792     0.11500
H1304       H  0.21376250  0.23603672  0.09874569     0.11800
H1305       H  0.26799385  0.18534375  0.11900569     0.14500
H1306       H  0.23793755  0.14692271  0.12102155     0.13300
H1307       H  0.17311538  0.23079579  0.14150143     0.11000
H1308       H  0.17377703  0.24317785  0.09434851     0.13000
C1309       C  0.12233597  0.96264176  0.32786133     0.19100
C1310       C  0.10860993  0.97551769  0.31596004    -0.19000
C1311       C  0.10903835  0.99765852  0.31785232    -0.11300
C1312       C  0.12347851  0.00775828  0.33164665     0.21300
C1313       C  0.13708348  0.99487609  0.34375961    -0.20600
C1314       C  0.13658948  0.97262295  0.34191805    -0.11500
C1315       C  0.12469511  0.03147687  0.33402348    -0.15600
C1316       C  0.11543260  0.04525642  0.32051510    -0.29500
C1317       C  0.12102129  0.93909454  0.32472556    -0.03800
C1318       C  0.13268744  0.92434980  0.33501407    -0.40300
H1319       H  0.09733796  0.96839514  0.30510030     0.12500
H1320       H  0.09773571  0.00655254  0.30858210     0.12100
H1321       H  0.14828445  0.00207493  0.35463245     0.11500
H1322       H  0.14747394  0.96350222  0.35148121     0.11800
H1323       H  0.13406722  0.03782271  0.34702644     0.14500
H1324       H  0.10676727  0.03939563  0.30690205     0.13300
H1325       H  0.10966519  0.93356501  0.31298339     0.11000
H1326       H  0.14416109  0.92897702  0.34693183     0.13000
C1327       C  0.23318594  0.09873024  0.20611875     0.19100
C1328       C  0.21112077  0.10036358  0.20363383    -0.19000
C1329       C  0.19768496  0.09998621  0.22131928    -0.11300
C1330       C  0.20622168  0.09852471  0.24184874     0.21300
C1331       C  0.22826913  0.09623224  0.24427919    -0.20600
C1332       C  0.24167393  0.09603071  0.22651219    -0.11500
C1333       C  0.19280383  0.10243337  0.26076642    -0.15600
C1334       C  0.17231098  0.09649817  0.26191764    -0.29500
C1335       C  0.24709068  0.10349073  0.18784970    -0.03800
C1336       C  0.26550839  0.09346404  0.18402376    -0.40300
H1337       H  0.20435658  0.10279751  0.18803727     0.12500
H1338       H  0.18080141  0.10231202  0.21897416     0.12100
H1339       H  0.23516819  0.09538176  0.25997991     0.11500
H1340       H  0.25871600  0.09525515  0.22881703     0.11800
H1341       H  0.19983192  0.11121316  0.27385199     0.14500
H1342       H  0.16552117  0.08630972  0.24977622     0.13300
H1343       H  0.24209607  0.11617697  0.17725731     0.11000
H1344       H  0.27008068  0.07954996  0.19310829     0.13000
C1345       C  0.11172824  0.22672411  0.21363833     0.19100
C1346       C  0.11109804  0.22971439  0.23568284    -0.19000
C1347       C  0.11017672  0.21226278  0.24939805    -0.11300
C1348       C  0.11022798  0.19141890  0.24125499     0.21300
C1349       C  0.10990710  0.18845777  0.21923618    -0.20600
C1350       C  0.11086139  0.20586076  0.20554218    -0.11500
C1351       C  0.11189169  0.17241982  0.25507422    -0.15600
C1352       C  0.12192375  0.17293478  0.27383625    -0.29500
C1353       C  0.11516750  0.24540270  0.19960902    -0.03800
C1354       C  0.11000309  0.24524860  0.17896540    -0.40300
H1355       H  0.11168724  0.24558812  0.24231097     0.12500
H1356       H  0.10972024  0.21517365  0.26631559     0.12100
H1357       H  0.10994985  0.17257836  0.21258891     0.11500
H1358       H  0.11194351  0.20273121  0.18870253     0.11800
H1359       H  0.10665727  0.15723596  0.24872497     0.14500
H1360       H  0.12820200  0.18779971  0.27991031     0.13300
H1361       H  0.12292018  0.25932038  0.20628277     0.11000
H1362       H  0.10143551  0.23184591  0.17231980     0.13000
C1363       C  0.22823547  0.10959871  0.36227677     0.19100
C1364       C  0.24725922  0.10074725  0.35459169    -0.19000
C1365       C  0.26695255  0.10993549  0.35951579    -0.11300
C1366       C  0.26796414  0.12844956  0.37201044     0.21300
C1367       C  0.24900396  0.13664865  0.38055076    -0.20600
C1368       C  0.22935853  0.12728449  0.37587593    -0.11500
C1369       C  0.28777793  0.14132182  0.37387102    -0.15600
C1370       C  0.30760637  0.13370575  0.37096289    -0.29500
C1371       C  0.20774701  0.10296314  0.35257469    -0.03800
C1372       C  0.18857060  0.10566307  0.36186520    -0.40300
H1373       H  0.24680467  0.08734512  0.34380803     0.12500
H1374       H  0.28110846  0.10336214  0.35226727     0.12100
H1375       H  0.24928995  0.15100761  0.39003732     0.11500
H1376       H  0.21503430  0.13491327  0.38161810     0.11800
H1377       H  0.28581465  0.15820544  0.37697276     0.14500
H1378       H  0.31026444  0.11676071  0.36922452     0.13300
H1379       H  0.20841281  0.09790224  0.33608260     0.11000
H1380       H  0.18749533  0.10951687  0.37863354     0.13000
C1381       C  0.36158817  0.12373853  0.23117978     0.19100
C1382       C  0.35760126  0.11173701  0.24958291    -0.19000
C1383       C  0.36287357  0.11974516  0.26963988    -0.11300
C1384       C  0.37169554  0.14018294  0.27161308     0.21300
C1385       C  0.37655612  0.15175541  0.25319221    -0.20600
C1386       C  0.37182835  0.14352615  0.23313658    -0.11500
C1387       C  0.37187646  0.15128936  0.29232518    -0.15600
C1388       C  0.37679369  0.14198306  0.31086920    -0.29500
C1389       C  0.35150202  0.11733015  0.21088763    -0.03800
C1390       C  0.35922201  0.12267043  0.19162676    -0.40300
H1391       H  0.34941518  0.09660884  0.24850394     0.12500
H1392       H  0.35847443  0.11070829  0.28361845     0.12100
H1393       H  0.38301092  0.16768899  0.25438535     0.11500
H1394       H  0.37462350  0.15342852  0.21935485     0.11800
H1395       H  0.36656098  0.16773195  0.29240366     0.14500
H1396       H  0.38370394  0.12618296  0.31121657     0.13300
H1397       H  0.33617226  0.10934777  0.21195167     0.11000
H1398       H  0.37512079  0.12929649  0.19007812     0.13000
C1399       C  0.38412642  0.51249930  0.17637294     0.19100
C1400       C  0.37334230  0.50083356  0.16076464    -0.19000
C1401       C  0.37179465  0.47863883  0.16211723    -0.11300
C1402       C  0.38127628  0.46760388  0.17910030     0.21300
C1403       C  0.39254749  0.47932865  0.19433679    -0.20600
C1404       C  0.39404723  0.50143150  0.19299095    -0.11500
C1405       C  0.38030516  0.44403895  0.18169175    -0.15600
C1406       C  0.36999001  0.43051430  0.16869798    -0.29500
C1407       C  0.38484967  0.53611857  0.17497381    -0.03800
C1408       C  0.38615517  0.54847526  0.19235221    -0.40300
H1409       H  0.36577392  0.50895754  0.14766603     0.12500
H1410       H  0.36315333  0.47042388  0.14982027     0.12100
H1411       H  0.40029759  0.47134018  0.20741538     0.11500
H1412       H  0.40320075  0.50973886  0.20490409     0.11800
H1413       H  0.38884671  0.43740976  0.19510486     0.14500
H1414       H  0.36126057  0.43628630  0.15510054     0.13300
H1415       H  0.38315437  0.54348715  0.15947942     0.11000
H1416       H  0.38639481  0.54119963  0.20796742     0.13000
C1417       C  0.35994882  0.26259920  0.13172164     0.19100
C1418       C  0.34692599  0.25145613  0.11748050    -0.19000
C1419       C  0.34629139  0.22920341  0.11765178    -0.11300
C1420       C  0.35827879  0.21772522  0.13252445     0.21300
C1421       C  0.37195099  0.22885276  0.14616665    -0.20600
C1422       C  0.37300391  0.25106763  0.14560909    -0.11500
C1423       C  0.35412143  0.19484960  0.13658806    -0.15600
C1424       C  0.34819552  0.18081707  0.12158043    -0.29500
C1425       C  0.35671307  0.28575719  0.13466144    -0.03800
C1426       C  0.37223146  0.29930816  0.14047219    -0.40300
H1427       H  0.33646983  0.26002522  0.10689088     0.12500
H1428       H  0.33523279  0.22113370  0.10726828     0.12100
H1429       H  0.38110368  0.22037245  0.15796641     0.11500
H1430       H  0.38278518  0.25921546  0.15715089     0.11800
H1431       H  0.35517123  0.18951986  0.15297029     0.14500
H1432       H  0.34863190  0.18518784  0.10491239     0.13300
H1433       H  0.34048919  0.29157926  0.13345813     0.11000
H1434       H  0.38874006  0.29425737  0.14031087     0.13000
C1435       C  0.22530734  0.34284822  0.12691731     0.19100
C1436       C  0.24410577  0.33407595  0.11879767    -0.19000
C1437       C  0.26380891  0.34234619  0.12470265    -0.11300
C1438       C  0.26498158  0.35940396  0.13909743     0.21300
C1439       C  0.24619031  0.36882973  0.14640334    -0.20600
C1440       C  0.22648650  0.36074496  0.14028355    -0.11500
C1441       C  0.28519546  0.36491416  0.14956036    -0.15600
C1442       C  0.30410886  0.36236204  0.14004784    -0.29500
C1443       C  0.20518120  0.33104249  0.12414352    -0.03800
C1444       C  0.18609086  0.34026779  0.12612706    -0.40300
H1445       H  0.24356901  0.32011199  0.10875127     0.12500
H1446       H  0.27802541  0.33430882  0.11925997     0.12100
H1447       H  0.24677120  0.38174399  0.15776034     0.11500
H1448       H  0.21236368  0.36756536  0.14737026     0.11800
H1449       H  0.28451961  0.36926840  0.16625020     0.14500
H1450       H  0.30503311  0.35934879  0.12309485     0.13300
H1451       H  0.20616849  0.31391414  0.12210391     0.11000
H1452       H  0.18475607  0.35744876  0.12687548     0.13000
C1453       C  0.38671876  0.29239966  0.26579916     0.19100
C1454       C  0.38192350  0.29618868  0.28722481    -0.19000
C1455       C  0.37954567  0.27928793  0.30147686    -0.11300
C1456       C  0.38222330  0.25813018  0.29461592     0.21300
C1457       C  0.38813666  0.25445089  0.27344220    -0.20600
C1458       C  0.39057560  0.27135174  0.25922326    -0.11500
C1459       C  0.37752387  0.23951396  0.30849713    -0.15600
C1460       C  0.37670969  0.24059026  0.32979463    -0.29500
C1461       C  0.38584700  0.31049895  0.25058189    -0.03800
C1462       C  0.38065879  0.30773934  0.23008793    -0.40300
H1463       H  0.37895023  0.31221954  0.29274587     0.12500
H1464       H  0.37462852  0.28294843  0.31751707     0.12100
H1465       H  0.39050072  0.23837459  0.26776066     0.11500
H1466       H  0.39512088  0.26775965  0.24304652     0.11800
H1467       H  0.37442418  0.22435295  0.30082750     0.14500
H1468       H  0.38076348  0.25524258  0.33788873     0.13300
H1469       H  0.38675266  0.32654713  0.25689540     0.11000
H1470       H  0.37823150  0.29183732  0.22390856     0.13000
C1471       C  0.17572366  0.50904784  0.36919334     0.19100
C1472       C  0.15779807  0.49593675  0.36684396    -0.19000
C1473       C  0.15997635  0.47372169  0.36640539    -0.11300
C1474       C  0.18024026  0.46428899  0.36802579     0.21300
C1475       C  0.19815833  0.47753801  0.36922506    -0.20600
C1476       C  0.19596912  0.49958662  0.36983296    -0.11500
C1477       C  0.18370256  0.44087384  0.36857179    -0.15600
C1478       C  0.16879273  0.42652203  0.37423999    -0.29500
C1479       C  0.17335557  0.53251898  0.37120579    -0.03800
C1480       C  0.18604278  0.54351171  0.38437166    -0.40300
H1481       H  0.14207464  0.50286357  0.36590585     0.12500
H1482       H  0.14581275  0.46409788  0.36475169     0.12100
H1483       H  0.21397031  0.47078659  0.37010535     0.11500
H1484       H  0.21020702  0.50924194  0.37083231     0.11800
H1485       H  0.19978740  0.43531458  0.36550783     0.14500
H1486       H  0.15276536  0.43159061  0.37812526     0.13300
H1487       H  0.16112094  0.54063067  0.36220247     0.11000
H1488       H  0.19728460  0.53484220  0.39413893     0.13000
C1489       C  0.14052860  0.34455853  0.27435615     0.19100
C1490       C  0.12625232  0.33075861  0.26418217    -0.19000
C1491       C  0.12366262  0.33150147  0.24210235    -0.11300
C1492       C  0.13584041  0.34565658  0.22975352     0.21300
C1493       C  0.14962966  0.35987595  0.24000598    -0.20600
C1494       C  0.15172769  0.35957908  0.26212051    -0.11500
C1495       C  0.13755061  0.34300498  0.20640572    -0.15600
C1496       C  0.12116267  0.33781996  0.19368327    -0.29500
C1497       C  0.14572689  0.34118646  0.29708601    -0.03800
C1498       C  0.14975737  0.35724096  0.31058746    -0.40300
H1499       H  0.11765120  0.31888547  0.27326641     0.12500
H1500       H  0.11333778  0.31997329  0.23458672     0.12100
H1501       H  0.15947897  0.37063059  0.23078454     0.11500
H1502       H  0.16318181  0.37010442  0.26946912     0.11800
H1503       H  0.15345119  0.34403239  0.19960283     0.14500
H1504       H  0.10494561  0.33815791  0.19968740     0.13300
H1505       H  0.14654654  0.32490677  0.30279792     0.11000
H1506       H  0.14723688  0.37355591  0.30556009     0.13000
C1507       C  0.14498424  0.20724334  0.37596284     0.19100
C1508       C  0.13090647  0.22234415  0.36743182    -0.19000
C1509       C  0.13431741  0.24420453  0.37083253    -0.11300
C1510       C  0.15179184  0.25122978  0.38294721     0.21300
C1511       C  0.16485081  0.23594628  0.39252351    -0.20600
C1512       C  0.16158798  0.21429919  0.38896162    -0.11500
C1513       C  0.15905693  0.27381286  0.38369135    -0.15600
C1514       C  0.14778911  0.29096239  0.37754350    -0.29500
C1515       C  0.14530546  0.18471176  0.36885984    -0.03800
C1516       C  0.12812702  0.17311930  0.36337465    -0.40300
H1517       H  0.11822104  0.21739757  0.35695926     0.12500
H1518       H  0.12406488  0.25543626  0.36290870     0.12100
H1519       H  0.17841788  0.24079941  0.40191398     0.11500
H1520       H  0.17272920  0.20302706  0.39561284     0.11800
H1521       H  0.17540822  0.27633136  0.38868842     0.14500
H1522       H  0.13109515  0.28954630  0.37350324     0.13300
H1523       H  0.16091868  0.17738527  0.36765107     0.11000
H1524       H  0.11221175  0.17938075  0.36573458     0.13000
C1525       C  0.25752362  0.28248419  0.40743052     0.19100
C1526       C  0.25409576  0.26049001  0.40666867    -0.19000
C1527       C  0.27098175  0.24642826  0.40932261    -0.11300
C1528       C  0.29174067  0.25415301  0.41237251     0.21300
C1529       C  0.29488459  0.27605260  0.41515774    -0.20600
C1530       C  0.27789187  0.29019177  0.41262502    -0.11500
C1531       C  0.31036096  0.24003185  0.40930889    -0.15600
C1532       C  0.31048403  0.22629627  0.39298796    -0.29500
C1533       C  0.24055834  0.29661505  0.39942053    -0.03800
C1534       C  0.23844974  0.31712047  0.40486064    -0.40300
H1535       H  0.23851637  0.25419256  0.40285988     0.12500
H1536       H  0.26804717  0.22954622  0.40764743     0.12100
H1537       H  0.31075294  0.28232902  0.41755343     0.11500
H1538       H  0.28110713  0.30708621  0.41308770     0.11800
H1539       H  0.32488358  0.24305905  0.41810261     0.14500
H1540       H  0.29656830  0.22517493  0.38286600     0.13300
H1541       H  0.22955040  0.28988143  0.38795140     0.11000
H1542       H  0.24795429  0.32390785  0.41752135     0.13000
C1543       C  0.26250796  0.36945265  0.29731487     0.19100
C1544       C  0.26095464  0.37782970  0.27671803    -0.19000
C1545       C  0.27830000  0.37694581  0.26266674    -0.11300
C1546       C  0.29733052  0.36704063  0.26877209     0.21300
C1547       C  0.29898777  0.35891474  0.28945012    -0.20600
C1548       C  0.28187711  0.36035851  0.30369681    -0.11500
C1549       C  0.31438071  0.36236392  0.25306471    -0.15600
C1550       C  0.32069549  0.37597652  0.23777413    -0.29500
C1551       C  0.24316493  0.36809745  0.31096802    -0.03800
C1552       C  0.24377326  0.36995406  0.33224952    -0.40300
H1553       H  0.24611611  0.38463893  0.27133953     0.12500
H1554       H  0.27641191  0.38289495  0.24666241     0.12100
H1555       H  0.31338311  0.35091883  0.29439667     0.11500
H1556       H  0.28343038  0.35329256  0.31927922     0.11800
H1557       H  0.32207838  0.34694370  0.25415230     0.14500
H1558       H  0.31468829  0.39214302  0.23751938     0.13300
H1559       H  0.22803955  0.36505090  0.30324232     0.11000
H1560       H  0.25858559  0.37438251  0.33990456     0.13000
C1561       C  0.48364376  0.62659184  0.17914340     0.19100
C1562       C  0.49650931  0.63329186  0.19599488    -0.19000
C1563       C  0.51829588  0.63619162  0.19307641    -0.11300
C1564       C  0.52775860  0.63222078  0.17323874     0.21300
C1565       C  0.51483578  0.62669013  0.15601359    -0.20600
C1566       C  0.49290047  0.62373509  0.15894009    -0.11500
C1567       C  0.55122148  0.63154050  0.17119734    -0.15600
C1568       C  0.56243805  0.62076979  0.18569120    -0.29500
C1569       C  0.46110576  0.62141611  0.18389787    -0.03800
C1570       C  0.44542521  0.62098187  0.16945477    -0.40300
H1571       H  0.48975959  0.63576736  0.21165451     0.12500
H1572       H  0.52792135  0.64081259  0.20653484     0.12100
H1573       H  0.52187679  0.62347745  0.14062653     0.11500
H1574       H  0.48351825  0.61828688  0.14565662     0.11800
H1575       H  0.55898510  0.63826799  0.15729396     0.14500
H1576       H  0.55396573  0.61266630  0.19844246     0.13300
H1577       H  0.45708034  0.61861903  0.20047198     0.11000
H1578       H  0.44853007  0.62516757  0.15302653     0.13000
C1579       C  0.71209995  0.59754658  0.26747578     0.19100
C1580       C  0.73320853  0.59046958  0.26606920    -0.19000
C1581       C  0.74678621  0.59234353  0.28353950    -0.11300
C1582       C  0.73947774  0.60189247  0.30236465     0.21300
C1583       C  0.71828412  0.60842216  0.30391487    -0.20600
C1584       C  0.70463738  0.60607860  0.28674665    -0.11500
C1585       C  0.75420802  0.60821918  0.31932202    -0.15600
C1586       C  0.77002052  0.59590043  0.32640708    -0.29500
C1587       C  0.69883482  0.59891407  0.24820099    -0.03800
C1588       C  0.67761455  0.59693593  0.24930656    -0.40300
H1589       H  0.73934395  0.58416607  0.25126740     0.12500
H1590       H  0.76326782  0.58762838  0.28189322     0.12100
H1591       H  0.71249748  0.61610633  0.31820298     0.11500
H1592       H  0.68864639  0.61228604  0.28816501     0.11800
H1593       H  0.75166650  0.62372750  0.32652493     0.14500
H1594       H  0.77175145  0.57965546  0.32084215     0.13300
H1595       H  0.70642543  0.60370160  0.23342179     0.11000
H1596       H  0.67026845  0.59096938  0.26378039     0.13000
C1597       C  0.48402775  0.80281874  0.38892125     0.19100
C1598       C  0.49510433  0.81610716  0.37462505    -0.19000
C1599       C  0.51740780  0.81525122  0.37304154    -0.11300
C1600       C  0.52921767  0.80107063  0.38572826     0.21300
C1601       C  0.51803223  0.78784314  0.39986917    -0.20600
C1602       C  0.49583973  0.78866529  0.40139881    -0.11500
C1603       C  0.55300410  0.79921880  0.38492893    -0.15600
C1604       C  0.56610113  0.81177405  0.37339939    -0.29500
C1605       C  0.46028530  0.80228716  0.39080118    -0.03800
C1606       C  0.44698187  0.81733959  0.38335710    -0.40300
H1607       H  0.48668950  0.82688652  0.36429577     0.12500
H1608       H  0.52510417  0.82559542  0.36168016     0.12100
H1609       H  0.52651430  0.77671200  0.40983084     0.11500
H1610       H  0.48784184  0.77810656  0.41244362     0.11800
H1611       H  0.56016724  0.78702774  0.39479330     0.14500
H1612       H  0.55969085  0.82433552  0.36359168     0.13300
H1613       H  0.45339705  0.78867890  0.39896869     0.11000
H1614       H  0.45326257  0.83142176  0.37561440     0.13000
C1615       C  0.61546197  0.67785592  0.28923275     0.19100
C1616       C  0.62762762  0.67880123  0.30777095    -0.19000
C1617       C  0.62419468  0.69485217  0.32256576    -0.11300
C1618       C  0.60872196  0.71045906  0.31890040     0.21300
C1619       C  0.59530795  0.70860448  0.30130355    -0.20600
C1620       C  0.59869204  0.69239207  0.28643738    -0.11500
C1621       C  0.60940419  0.73038373  0.33119591    -0.15600
C1622       C  0.62795816  0.74087533  0.33213585    -0.29500
C1623       C  0.62267927  0.66351083  0.27210634    -0.03800
C1624       C  0.60998813  0.65574819  0.25689791    -0.40300
H1625       H  0.64056048  0.66773741  0.31028282     0.12500
H1626       H  0.63460339  0.69597748  0.33618217     0.12100
H1627       H  0.58341287  0.72062417  0.29819052     0.11500
H1628       H  0.58923897  0.69225234  0.27213242     0.11800
H1629       H  0.59503130  0.73679393  0.33834316     0.14500
H1630       H  0.64160785  0.73462265  0.32348882     0.13300
H1631       H  0.63942836  0.65918369  0.27200997     0.11000
H1632       H  0.59292898  0.65835437  0.25746098     0.13000
C1633       C  0.74625610  0.69536035  0.38931613     0.19100
C1634       C  0.74909558  0.71704730  0.39366514    -0.19000
C1635       C  0.73166137  0.73083107  0.39477024    -0.11300
C1636       C  0.71086338  0.72330758  0.39102820     0.21300
C1637       C  0.70801575  0.70148726  0.38715324    -0.20600
C1638       C  0.72545187  0.68767010  0.38625123    -0.11500
C1639       C  0.69191370  0.73763204  0.38993908    -0.15600
C1640       C  0.69328162  0.75884663  0.38723512    -0.29500
C1641       C  0.76536857  0.68168455  0.38627927    -0.03800
C1642       C  0.76525443  0.66041180  0.38881432    -0.40300
H1643       H  0.76493359  0.72340610  0.39605755     0.12500
H1644       H  0.73473794  0.74732207  0.39840722     0.12100
H1645       H  0.69226889  0.69518272  0.38413769     0.11500
H1646       H  0.72260408  0.67118112  0.38230171     0.11800
H1647       H  0.67631130  0.73021042  0.38911490     0.14500
H1648       H  0.70868114  0.76656233  0.38655004     0.13300
H1649       H  0.78001304  0.68947417  0.38130022     0.11000
H1650       H  0.75106200  0.65247490  0.39469161     0.13000
C1651       C  0.63639811  0.71848792  0.14148245     0.19100
C1652       C  0.64873654  0.72274556  0.12336405    -0.19000
C1653       C  0.65405185  0.74363667  0.11788469    -0.11300
C1654       C  0.64670021  0.76082956  0.13004734     0.21300
C1655       C  0.63312575  0.75672916  0.14739339    -0.20600
C1656       C  0.62804155  0.73574612  0.15307846    -0.11500
C1657       C  0.65619899  0.78216587  0.12622834    -0.15600
C1658       C  0.64705605  0.80082047  0.13151678    -0.29500
C1659       C  0.63381477  0.69595152  0.14841059    -0.03800
C1660       C  0.63212879  0.69032829  0.16897226    -0.40300
H1661       H  0.65525396  0.70981433  0.11405291     0.12500
H1662       H  0.66462318  0.74634299  0.10452178     0.12100
H1663       H  0.62741821  0.76957945  0.15729537     0.11500
H1664       H  0.61800270  0.73310043  0.16682485     0.11800
H1665       H  0.67221027  0.78238613  0.11961535     0.14500
H1666       H  0.63061329  0.80133307  0.13683221     0.13300
H1667       H  0.63598849  0.68358334  0.13656552     0.11000
H1668       H  0.63144779  0.70254852  0.18110798     0.13000
C1669       C  0.63963060  0.85788687  0.22757191     0.19100
C1670       C  0.62295522  0.84576890  0.23611071    -0.19000
C1671       C  0.61918560  0.84558510  0.25796066    -0.11300
C1672       C  0.63255271  0.85698822  0.27177941     0.21300
C1673       C  0.64818482  0.87040816  0.26308262    -0.20600
C1674       C  0.65172554  0.87087252  0.24111913    -0.11500
C1675       C  0.63238807  0.85294368  0.29504539    -0.15600
C1676       C  0.62866860  0.83327255  0.30249123    -0.29500
C1677       C  0.64601735  0.85430981  0.20523381    -0.03800
C1678       C  0.65396615  0.86961138  0.19264915    -0.40300
H1679       H  0.61334534  0.83578268  0.22592009     0.12500
H1680       H  0.60646993  0.83567457  0.26408128     0.12100
H1681       H  0.65864015  0.87938606  0.27336845     0.11500
H1682       H  0.66487474  0.88017891  0.23494918     0.11800
H1683       H  0.63875557  0.86498238  0.30564350     0.14500
H1684       H  0.62453043  0.82067472  0.29146516     0.13300
H1685       H  0.64437539  0.83827830  0.19898955     0.11000
H1686       H  0.65402735  0.88606397  0.19786242     0.13000
C1687       C  0.97980011  0.65095863  0.11913345     0.19100
C1688       C  0.99202016  0.63797395  0.13253229    -0.19000
C1689       C  0.01438720  0.63972858  0.13279633    -0.11300
C1690       C  0.02493445  0.65436087  0.11937701     0.21300
C1691       C  0.01261324  0.66654902  0.10540784    -0.20600
C1692       C  0.99047779  0.66484751  0.10520952    -0.11500
C1693       C  0.04844701  0.65829561  0.11941460    -0.15600
C1694       C  0.06310061  0.64773795  0.13093786    -0.29500
C1695       C  0.95599316  0.65056096  0.11996244    -0.03800
C1696       C  0.94491385  0.66875302  0.11789791    -0.40300
H1697       H  0.98422746  0.62697398  0.14327643     0.12500
H1698       H  0.02316240  0.62992070  0.14376229     0.12100
H1699       H  0.02014385  0.67774650  0.09467224     0.11500
H1700       H  0.98168765  0.67458238  0.09413808     0.11800
H1701       H  0.05406005  0.67104388  0.10916754     0.14500
H1702       H  0.05844559  0.63464518  0.14113308     0.13300
H1703       H  0.94772560  0.63569741  0.12303683     0.11000
H1704       H  0.95373105  0.68358457  0.11669663     0.13000
C1705       C  0.76037370  0.77934333  0.10865721     0.19100
C1706       C  0.75713461  0.75864908  0.11617354    -0.19000
C1707       C  0.77320055  0.74354999  0.11471320    -0.11300
C1708       C  0.79301515  0.74875482  0.10582119     0.21300
C1709       C  0.79599289  0.76911427  0.09700944    -0.20600
C1710       C  0.77971774  0.78434782  0.09840316    -0.11500
C1711       C  0.81067094  0.73365842  0.10951112    -0.15600
C1712       C  0.82956456  0.73332243  0.09938501    -0.29500
C1713       C  0.74443782  0.79560841  0.11469605    -0.03800
C1714       C  0.74140744  0.81418641  0.10464685    -0.40300
H1715       H  0.74242166  0.75440132  0.12415436     0.12500
H1716       H  0.77050074  0.72801378  0.12165621     0.12100
H1717       H  0.81122248  0.77374437  0.09038495     0.11500
H1718       H  0.78284505  0.80030472  0.09278049     0.11800
H1719       H  0.80811448  0.72227892  0.12229182     0.14500
H1720       H  0.83260191  0.74306124  0.08547866     0.13300
H1721       H  0.73471390  0.79206611  0.12858571     0.11000
H1722       H  0.74972621  0.81773151  0.08992718     0.13000
C1723       C  0.77528025  0.63382722  0.13859457     0.19100
C1724       C  0.76490577  0.61522788  0.14547668    -0.19000
C1725       C  0.74305845  0.61546189  0.15039295    -0.11300
C1726       C  0.73141684  0.63448855  0.14897533     0.21300
C1727       C  0.74175101  0.65292256  0.14191550    -0.20600
C1728       C  0.76331578  0.65262509  0.13669676    -0.11500
C1729       C  0.70943921  0.63662026  0.15734853    -0.15600
C1730       C  0.69441352  0.62137164  0.15655548    -0.29500
C1731       C  0.79887961  0.63435923  0.13595902    -0.03800
C1732       C  0.80830351  0.64818793  0.12261672    -0.40300
H1733       H  0.77381540  0.60066511  0.14751227     0.12500
H1734       H  0.73559919  0.60111477  0.15634239     0.12100
H1735       H  0.73322418  0.66784495  0.14107126     0.11500
H1736       H  0.77078570  0.66751235  0.13232733     0.11800
H1737       H  0.70537481  0.65189312  0.16433029     0.14500
H1738       H  0.69751715  0.60649870  0.14838278     0.13300
H1739       H  0.80851833  0.62526591  0.14696535     0.11000
H1740       H  0.79849634  0.65727056  0.11176992     0.13000
C1741       C  0.85940545  0.62747848  0.26723694     0.19100
C1742       C  0.85622116  0.61479223  0.24922340    -0.19000
C1743       C  0.86097182  0.62266658  0.22896530    -0.11300
C1744       C  0.86833667  0.64362674  0.22643762     0.21300
C1745       C  0.87190465  0.65614191  0.24449083    -0.20600
C1746       C  0.86778650  0.64805202  0.26474996    -0.11500
C1747       C  0.86935381  0.65372738  0.20526837    -0.15600
C1748       C  0.87578833  0.64359586  0.18759900    -0.29500
C1749       C  0.85091408  0.62051715  0.28803487    -0.03800
C1750       C  0.86100253  0.62451728  0.30635376    -0.40300
H1751       H  0.84941464  0.59903810  0.25080232     0.12500
H1752       H  0.85758275  0.61287226  0.21525795     0.12100
H1753       H  0.87723045  0.67245175  0.24285610     0.11500
H1754       H  0.86984351  0.65836094  0.27835434     0.11800
H1755       H  0.86421712  0.67018641  0.20415620     0.14500
H1756       H  0.88265613  0.62780146  0.18853479     0.13300
H1757       H  0.83525120  0.61316136  0.28832925     0.11000
H1758       H  0.87722421  0.63051833  0.30611408     0.13000
C1759       C  0.02638326  0.85302805  0.32586628     0.19100
C1760       C  0.01296400  0.85178477  0.30814369    -0.19000
C1761       C  0.99089788  0.85289885  0.31043114    -0.11300
C1762       C  0.98155344  0.85526232  0.33060473     0.21300
C1763       C  0.99483678  0.85557034  0.34848452    -0.20600
C1764       C  0.01705983  0.85461018  0.34618449    -0.11500
C1765       C  0.95802747  0.85695927  0.33323546    -0.15600
C1766       C  0.94567581  0.86604748  0.31836624    -0.29500
C1767       C  0.04980635  0.85278896  0.32195488    -0.03800
C1768       C  0.06498450  0.85796025  0.33618411    -0.40300
H1769       H  0.01959476  0.85020337  0.29232222     0.12500
H1770       H  0.98119877  0.85170392  0.29633235     0.12100
H1771       H  0.98801530  0.85695290  0.36423766     0.11500
H1772       H  0.02672845  0.85509136  0.36031467     0.11800
H1773       H  0.95083768  0.85106549  0.34780543     0.14500
H1774       H  0.95303985  0.87308757  0.30441367     0.13300
H1775       H  0.05478487  0.84913972  0.30582082     0.11000
H1776       H  0.06085678  0.86188227  0.35243016     0.13000
C1777       C  0.88543968  0.78893612  0.22954175     0.19100
C1778       C  0.87844635  0.79108989  0.20858340    -0.19000
C1779       C  0.88210855  0.77495205  0.19380543    -0.11300
C1780       C  0.89236687  0.75609076  0.19994262     0.21300
C1781       C  0.89970657  0.75413378  0.22086145    -0.20600
C1782       C  0.89655421  0.77057108  0.23550109    -0.11500
C1783       C  0.89256291  0.73724503  0.18584868    -0.15600
C1784       C  0.89301236  0.73867312  0.16455207    -0.29500
C1785       C  0.87880290  0.80479005  0.24548466    -0.03800
C1786       C  0.89229922  0.81328020  0.25957700    -0.40300
H1787       H  0.86961928  0.80505029  0.20381001     0.12500
H1788       H  0.87568391  0.77673202  0.17799908     0.12100
H1789       H  0.90729012  0.73959797  0.22603544     0.11500
H1790       H  0.90170870  0.76844714  0.25174155     0.11800
H1791       H  0.89064671  0.72176757  0.19329126     0.14500
H1792       H  0.89618195  0.75384346  0.15693911     0.13300
H1793       H  0.86239598  0.81020995  0.24509917     0.11000
H1794       H  0.90915565  0.80957212  0.25879832     0.13000
C1795       C  0.76672193  0.87603449  0.20699415     0.19100
C1796       C  0.76357516  0.87954061  0.22876995    -0.19000
C1797       C  0.78092989  0.88105650  0.24250141    -0.11300
C1798       C  0.80183166  0.87869547  0.23471071     0.21300
C1799       C  0.80499736  0.87611253  0.21284381    -0.20600
C1800       C  0.78767799  0.87459838  0.19912754    -0.11500
C1801       C  0.82056770  0.87732411  0.24891658    -0.15600
C1802       C  0.81908423  0.86954868  0.26870959    -0.29500
C1803       C  0.74793006  0.87228896  0.19325593    -0.03800
C1804       C  0.74843111  0.87479683  0.17206548    -0.40300
H1805       H  0.74762316  0.88078067  0.23522338     0.12500
H1806       H  0.77787251  0.88376322  0.25919321     0.12100
H1807       H  0.82091249  0.87423171  0.20645927     0.11500
H1808       H  0.79086688  0.87133062  0.18257591     0.11800
H1809       H  0.83621012  0.88039278  0.24215482     0.14500
H1810       H  0.80366679  0.86523345  0.27523496     0.13300
H1811       H  0.73332412  0.86688074  0.20083339     0.11000
H1812       H  0.76250200  0.88117722  0.16432801     0.13000
C1813       C  0.73316787  0.85458207  0.36097098     0.19100
C1814       C  0.74524862  0.86917796  0.34913568    -0.19000
C1815       C  0.76751606  0.86887409  0.35001108    -0.11300
C1816       C  0.77803894  0.85347077  0.36225590     0.21300
C1817       C  0.76590323  0.83932897  0.37457952    -0.20600
C1818       C  0.74367450  0.84006713  0.37420652    -0.11500
C1819       C  0.80113724  0.84945296  0.35957098    -0.15600
C1820       C  0.81561985  0.86479993  0.35582029    -0.29500
C1821       C  0.71021400  0.85190865  0.35650174    -0.03800
C1822       C  0.69577480  0.84774672  0.37174813    -0.40300
H1823       H  0.73745868  0.88021790  0.33853101     0.12500
H1824       H  0.77643653  0.87962148  0.33990795     0.12100
H1825       H  0.77365110  0.82708793  0.38381730     0.11500
H1826       H  0.73473872  0.82825350  0.38304066     0.11800
H1827       H  0.80619776  0.83294207  0.35953436     0.14500
H1828       H  0.81116422  0.88141611  0.35711424     0.13300
H1829       H  0.70543113  0.85152642  0.33994808     0.11000
H1830       H  0.70006245  0.84943429  0.38834874     0.13000
C1831       C  0.86490856  0.71921572  0.37103881     0.19100
C1832       C  0.85342041  0.73759769  0.37611954    -0.19000
C1833       C  0.86131241  0.75763558  0.37069516    -0.11300
C1834       C  0.88065038  0.75960496  0.35956932     0.21300
C1835       C  0.89258689  0.74128075  0.35524500    -0.20600
C1836       C  0.88494162  0.72121936  0.36121715    -0.11500
C1837       C  0.88630332  0.77991261  0.34908433    -0.15600
C1838       C  0.88207941  0.79889529  0.35789083    -0.29500
C1839       C  0.85397656  0.69843446  0.37241295    -0.03800
C1840       C  0.86386311  0.67995627  0.37632245    -0.40300
H1841       H  0.83779245  0.73637478  0.38334867     0.12500
H1842       H  0.85145917  0.77140859  0.37371681     0.12100
H1843       H  0.90733682  0.74242092  0.34635681     0.11500
H1844       H  0.89389013  0.70725471  0.35665030     0.11800
H1845       H  0.89192941  0.77914465  0.33275978     0.14500
H1846       H  0.87772512  0.79987381  0.37457060     0.13300
H1847       H  0.83701995  0.69825585  0.36902586     0.11000
H1848       H  0.88034429  0.67969754  0.38141304     0.13000
C1849       C  0.47199596  0.16783365  0.38437874     0.19100
C1850       C  0.48447611  0.15023691  0.37880087    -0.19000
C1851       C  0.50670473  0.15148266  0.37927570    -0.11300
C1852       C  0.51693542  0.17041571  0.38551353     0.21300
C1853       C  0.50439887  0.18776495  0.39176120    -0.20600
C1854       C  0.48220388  0.18654373  0.39118918    -0.11500
C1855       C  0.54051195  0.17258514  0.38633173    -0.15600
C1856       C  0.55399796  0.16007694  0.37537846    -0.29500
C1857       C  0.44842056  0.16605344  0.38352635    -0.03800
C1858       C  0.43586309  0.18290836  0.37980508    -0.40300
H1859       H  0.47699662  0.13552261  0.37389670     0.12500
H1860       H  0.51568736  0.13745922  0.37508262     0.12100
H1861       H  0.51181321  0.20238897  0.39702529     0.11500
H1862       H  0.47312295  0.20017670  0.39641496     0.11800
H1863       H  0.54698808  0.18548274  0.39580531     0.14500
H1864       H  0.54794258  0.14770989  0.36504564     0.13300
H1865       H  0.44129602  0.15040715  0.38532585     0.11000
H1866       H  0.44294944  0.19836075  0.37677055     0.13000
C1867       C  0.62952069  0.51477951  0.18253307     0.19100
C1868       C  0.64569768  0.49953748  0.18394242    -0.19000
C1869       C  0.64077248  0.47784294  0.18323907    -0.11300
C1870       C  0.61948045  0.47109986  0.18179135     0.21300
C1871       C  0.60334400  0.48634113  0.18033050    -0.20600
C1872       C  0.60831818  0.50799915  0.18038306    -0.11500
C1873       C  0.61367061  0.44839912  0.18397551    -0.15600
C1874       C  0.62475485  0.43286236  0.17445666    -0.29500
C1875       C  0.63458154  0.53751688  0.18585015    -0.03800
C1876       C  0.62462237  0.55310422  0.17525888    -0.40300
H1877       H  0.66209426  0.50443912  0.18596169     0.12500
H1878       H  0.65347491  0.46636919  0.18487397     0.12100
H1879       H  0.58683412  0.48146057  0.17950246     0.11500
H1880       H  0.59548406  0.51943152  0.17983330     0.11800
H1881       H  0.59991765  0.44441772  0.19371319     0.14500
H1882       H  0.63757535  0.43690467  0.16354485     0.13300
H1883       H  0.64628332  0.54151912  0.19786256     0.11000
H1884       H  0.61409385  0.54919913  0.16219335     0.13000
C1885       C  0.51930351  0.36568477  0.17637359     0.19100
C1886       C  0.50603898  0.37655294  0.16221502    -0.19000
C1887       C  0.48387174  0.37592816  0.16470268    -0.11300
C1888       C  0.47448444  0.36411855  0.18133280     0.21300
C1889       C  0.48775838  0.35296461  0.19520442    -0.20600
C1890       C  0.50982689  0.35348940  0.19265103    -0.11500
C1891       C  0.45109525  0.36337172  0.18518819    -0.15600
C1892       C  0.43657837  0.36777251  0.17024879    -0.29500
C1893       C  0.54288103  0.36763544  0.17416129    -0.03800
C1894       C  0.55574872  0.36560618  0.19100156    -0.40300
H1895       H  0.51286790  0.38601104  0.14952315     0.12500
H1896       H  0.47431041  0.38516772  0.15389878     0.12100
H1897       H  0.48100632  0.34364655  0.20804673     0.11500
H1898       H  0.51932821  0.34415223  0.20343297     0.11800
H1899       H  0.44562006  0.35843242  0.20082787     0.14500
H1900       H  0.44161901  0.37192601  0.15428896     0.13300
H1901       H  0.54961611  0.37193766  0.15883427     0.11000
H1902       H  0.54885473  0.36269501  0.20655478     0.13000
C1903       C  0.61304520  0.29080196  0.27424365     0.19100
C1904       C  0.60194402  0.27142141  0.27415247    -0.19000
C1905       C  0.60304627  0.25765969  0.29159862    -0.11300
C1906       C  0.61576140  0.26289681  0.30914495     0.21300
C1907       C  0.62649444  0.28243228  0.30937794    -0.20600
C1908       C  0.62499055  0.29636843  0.29222673    -0.11500
C1909       C  0.62083399  0.24709594  0.32571985    -0.15600
C1910       C  0.60691842  0.23273748  0.33337498    -0.29500
C1911       C  0.61407183  0.30390766  0.25470929    -0.03800
C1912       C  0.61565283  0.32518759  0.25539540    -0.40300
H1913       H  0.59288413  0.26669833  0.26034445     0.12500
H1914       H  0.59504240  0.24242877  0.29080193     0.12100
H1915       H  0.63666917  0.28659476  0.32258316     0.11500
H1916       H  0.63420031  0.31092072  0.29256580     0.11800
H1917       H  0.63705077  0.24711181  0.33166755     0.14500
H1918       H  0.59023268  0.23340424  0.32904233     0.13300
H1919       H  0.61425437  0.29579971  0.23947822     0.11000
H1920       H  0.61391800  0.33341544  0.27046242     0.13000
C1921       C  0.66964508  0.96869237  0.12736996     0.19100
C1922       C  0.65771237  0.98193575  0.11403849    -0.19000
C1923       C  0.65960234  0.00412730  0.11536003    -0.11300
C1924       C  0.67329623  0.01353969  0.13033955     0.21300
C1925       C  0.68454535  0.00025174  0.14419804    -0.20600
C1926       C  0.68265131  0.97814648  0.14287644    -0.11500
C1927       C  0.67749527  0.03687619  0.13118815    -0.15600
C1928       C  0.66453047  0.05183421  0.12310021    -0.29500
C1929       C  0.66876247  0.94516247  0.12447629    -0.03800
C1930       C  0.68577816  0.93279871  0.12824667    -0.40300
H1931       H  0.64749190  0.97508113  0.10204065     0.12500
H1932       H  0.65091093  0.01371211  0.10412387     0.12100
H1933       H  0.69507495  0.00701059  0.15598739     0.11500
H1934       H  0.69151186  0.96851188  0.15396353     0.11800
H1935       H  0.69205931  0.04195850  0.13894106     0.14500
H1936       H  0.64942022  0.04734575  0.11615090     0.13300
H1937       H  0.65444555  0.93810924  0.11789254     0.11000
H1938       H  0.70051680  0.94012186  0.13345562     0.13000
C1939       C  0.62271254  0.13140918  0.26754699     0.19100
C1940       C  0.63210895  0.11454511  0.25630507    -0.19000
C1941       C  0.63420393  0.11533802  0.23414137    -0.11300
C1942       C  0.62716194  0.13321385  0.22278754     0.21300
C1943       C  0.61709632  0.14969365  0.23386982    -0.20600
C1944       C  0.61477040  0.14881801  0.25592034    -0.11500
C1945       C  0.63319200  0.13675525  0.20024733    -0.15600
C1946       C  0.63563439  0.12113873  0.18584240    -0.29500
C1947       C  0.62418789  0.13178092  0.29122099    -0.03800
C1948       C  0.61296675  0.14526052  0.30343435    -0.40300
H1949       H  0.63866651  0.10111134  0.26478284     0.12500
H1950       H  0.64255451  0.10261390  0.22611947     0.12100
H1951       H  0.61184290  0.16377586  0.22551505     0.11500
H1952       H  0.60799391  0.16253387  0.26369726     0.11800
H1953       H  0.63670391  0.15303256  0.19557992     0.14500
H1954       H  0.63086708  0.10497800  0.18964475     0.13300
H1955       H  0.63655835  0.12229085  0.29859139     0.11000
H1956       H  0.60069048  0.15509145  0.29652021     0.13000
C1957       C  0.63587612  0.22124512  0.13450362     0.19100
C1958       C  0.61696100  0.23161417  0.14033830    -0.19000
C1959       C  0.61730958  0.25287175  0.14716176    -0.11300
C1960       C  0.63672570  0.26399799  0.14858799     0.21300
C1961       C  0.65549911  0.25369962  0.14241923    -0.20600
C1962       C  0.65513080  0.23268138  0.13544311    -0.11500
C1963       C  0.63863142  0.28559652  0.15798547    -0.15600
C1964       C  0.62278842  0.29991307  0.15916288    -0.29500
C1965       C  0.63590585  0.19788278  0.13055746    -0.03800
C1966       C  0.65131198  0.18849353  0.11906988    -0.40300
H1967       H  0.60199023  0.22306408  0.14018750     0.12500
H1968       H  0.60255352  0.26013854  0.15220232     0.12100
H1969       H  0.67068908  0.26178187  0.14357601     0.11500
H1970       H  0.67019985  0.22514479  0.13198173     0.11800
H1971       H  0.65426819  0.29014799  0.16375423     0.14500
H1972       H  0.60730726  0.29639713  0.15246224     0.13300
H1973       H  0.62498889  0.18810672  0.13977860     0.11000
H1974       H  0.66228419  0.19829259  0.10998107     0.13000
C1975       C  0.01988262  0.10760314  0.33305018     0.19100
C1976       C  0.00566258  0.11230006  0.34963330    -0.19000
C1977       C  0.98358361  0.11182153  0.34624665    -0.11300
C1978       C  0.97532645  0.10628089  0.32620483     0.21300
C1979       C  0.98963733  0.10085665  0.30993204    -0.20600
C1980       C  0.01158396  0.10156779  0.31324688    -0.11500
C1981       C  0.95208823  0.10536469  0.32147496    -0.15600
C1982       C  0.93677024  0.11486926  0.33311265    -0.29500
C1983       C  0.04331521  0.10856435  0.33650978    -0.03800
C1984       C  0.05646168  0.11568962  0.32116549    -0.40300
H1985       H  0.01165653  0.11664131  0.36513176     0.12500
H1986       H  0.97315980  0.11551497  0.35942093     0.12100
H1987       H  0.98381330  0.09617362  0.29445974     0.11500
H1988       H  0.02207212  0.09713731  0.30031423     0.11800
H1989       H  0.94744619  0.09698800  0.30712715     0.14500
H1990       H  0.94085316  0.12394046  0.34715241     0.13300
H1991       H  0.04971897  0.10348336  0.35166143     0.11000
H1992       H  0.04960270  0.12190256  0.30663359     0.13000
C1993       C  0.86783944  0.01185339  0.30572919     0.19100
C1994       C  0.85775586  0.99997980  0.28982283    -0.19000
C1995       C  0.85818429  0.97777526  0.29017355    -0.11300
C1996       C  0.86878967  0.96681810  0.30638899     0.21300
C1997       C  0.87898618  0.97871670  0.32234799    -0.20600
C1998       C  0.87851547  0.00094935  0.32201234    -0.11500
C1999       C  0.86956032  0.94315391  0.30533014    -0.15600
C2000       C  0.87693092  0.93050261  0.32090326    -0.29500
C2001       C  0.86782872  0.03544943  0.30402492    -0.03800
C2002       C  0.87226137  0.04868039  0.32022516    -0.40300
H2003       H  0.84959272  0.00792218  0.27696992     0.12500
H2004       H  0.85033036  0.96911658  0.27756805     0.12100
H2005       H  0.88785886  0.97114265  0.33486519     0.11500
H2006       H  0.88712007  0.00940872  0.33419827     0.11800
H2007       H  0.86383768  0.93577083  0.29083110     0.14500
H2008       H  0.88230587  0.93711381  0.33581675     0.13300
H2009       H  0.86383415  0.04222576  0.28868163     0.11000
H2010       H  0.87541428  0.04248421  0.33595312     0.13000
C2011       C  0.76284072  0.10115872  0.19985004     0.19100
C2012       C  0.78430572  0.10635260  0.19629151    -0.19000
C2013       C  0.79848172  0.10828744  0.21326082    -0.11300
C2014       C  0.79149982  0.10488624  0.23424134     0.21300
C2015       C  0.77021564  0.09906597  0.23776120    -0.20600
C2016       C  0.75607749  0.09697293  0.22078580    -0.11500
C2017       C  0.80549539  0.10883357  0.25282230    -0.15600
C2018       C  0.82683054  0.10699400  0.25213487    -0.29500
C2019       C  0.74791485  0.10146693  0.18151119    -0.03800
C2020       C  0.72688886  0.10502486  0.18363395    -0.40300
H2021       H  0.78997153  0.10970296  0.18037104     0.12500
H2022       H  0.81463196  0.11328539  0.20993390     0.12100
H2023       H  0.76445197  0.09630011  0.25375753     0.11500
H2024       H  0.73987666  0.09227376  0.22423228     0.11800
H2025       H  0.79787515  0.11342774  0.26764472     0.14500
H2026       H  0.83459734  0.10122154  0.23784195     0.13300
H2027       H  0.75479615  0.10130752  0.16564875     0.11000
H2028       H  0.71988531  0.10681360  0.19928988     0.13000
C2029       C  0.72162263  0.12456588  0.35443983     0.19100
C2030       C  0.73254008  0.11282199  0.33893387    -0.19000
C2031       C  0.75478707  0.11234069  0.33861726    -0.11300
C2032       C  0.76649624  0.12416691  0.35346398     0.21300
C2033       C  0.75559721  0.13530853  0.36943085    -0.20600
C2034       C  0.73333315  0.13526124  0.37013503    -0.11500
C2035       C  0.78959049  0.12781241  0.35038956    -0.15600
C2036       C  0.80305595  0.11258775  0.34383274    -0.29500
C2037       C  0.69857223  0.12854632  0.35176274    -0.03800
C2038       C  0.68494951  0.13094726  0.36808953    -0.40300
H2039       H  0.72383297  0.10475114  0.32650197     0.12500
H2040       H  0.76278423  0.10400573  0.32584885     0.12100
H2041       H  0.76432191  0.14475930  0.38084390     0.11500
H2042       H  0.72533851  0.14486497  0.38197762     0.11800
H2043       H  0.79555655  0.14385516  0.35284271     0.14500
H2044       H  0.79779793  0.09615394  0.34297860     0.13300
H2045       H  0.69286019  0.13074242  0.33564861     0.11000
H2046       H  0.68997123  0.12736116  0.38416881     0.13000
C2047       C  0.83322859  0.51041836  0.38278159     0.19100
C2048       C  0.82648709  0.49850818  0.40039188    -0.19000
C2049       C  0.82738381  0.47635288  0.40017280    -0.11300
C2050       C  0.83458115  0.46540225  0.38202262     0.21300
C2051       C  0.84200842  0.47731086  0.36462099    -0.20600
C2052       C  0.84129404  0.49961046  0.36492181    -0.11500
C2053       C  0.83385579  0.44171294  0.38061103    -0.15600
C2054       C  0.81977583  0.43016096  0.39192056    -0.29500
C2055       C  0.83034317  0.53386794  0.38352437    -0.03800
C2056       C  0.84082479  0.54803824  0.37126106    -0.40300
H2057       H  0.82037956  0.50640172  0.41443026     0.12500
H2058       H  0.82236018  0.46795245  0.41430722     0.12100
H2059       H  0.84775325  0.46932712  0.35049364     0.11500
H2060       H  0.84637463  0.50820692  0.35092245     0.11800
H2061       H  0.84390895  0.43380528  0.36899120     0.14500
H2062       H  0.80864388  0.43812851  0.40241736     0.13300
H2063       H  0.81919120  0.53980533  0.39534410     0.11000
H2064       H  0.85281692  0.54281441  0.35999479     0.13000
C2065       C  0.72506779  0.38954744  0.30809499     0.19100
C2066       C  0.70280908  0.39015144  0.30833104    -0.19000
C2067       C  0.69152100  0.39082894  0.28932332    -0.11300
C2068       C  0.70239435  0.39019616  0.26978783     0.21300
C2069       C  0.72468844  0.39043307  0.26957234    -0.20600
C2070       C  0.73599255  0.39046436  0.28862058    -0.11500
C2071       C  0.69078968  0.38533268  0.25006860    -0.15600
C2072       C  0.67151436  0.39335908  0.24594484    -0.29500
C2073       C  0.73637729  0.38355480  0.32758044    -0.03800
C2074       C  0.75503771  0.39209292  0.33324241    -0.40300
H2075       H  0.69415901  0.38901626  0.32320213     0.12500
H2076       H  0.67431809  0.39008226  0.28992476     0.12100
H2077       H  0.73331976  0.38957113  0.25467724     0.11500
H2078       H  0.75318382  0.38943420  0.28809613     0.11800
H2079       H  0.69754288  0.37339626  0.23954895     0.14500
H2080       H  0.66524734  0.40633759  0.25546045     0.13300
H2081       H  0.72982045  0.37043502  0.33678231     0.11000
H2082       H  0.76131431  0.40607495  0.32525880     0.13000
C2083       C  0.86027808  0.22010122  0.35643026     0.19100
C2084       C  0.87192140  0.23885679  0.35296278    -0.19000
C2085       C  0.86352507  0.25859253  0.35889493    -0.11300
C2086       C  0.84304934  0.25988903  0.36781603     0.21300
C2087       C  0.83162070  0.24113824  0.37174165    -0.20600
C2088       C  0.84025751  0.22138233  0.36640508    -0.11500
C2089       C  0.83212204  0.28056820  0.36992299    -0.15600
C2090       C  0.84144450  0.29807474  0.37784480    -0.29500
C2091       C  0.86752721  0.19999211  0.34650248    -0.03800
C2092       C  0.86305775  0.18071724  0.35463795    -0.40300
H2093       H  0.88719025  0.23828654  0.34494549     0.12500
H2094       H  0.87241322  0.27290088  0.35522576     0.12100
H2095       H  0.81565891  0.24185181  0.37825677     0.11500
H2096       H  0.83061762  0.20729217  0.36873967     0.11800
H2097       H  0.81581068  0.28146841  0.36432017     0.14500
H2098       H  0.85705106  0.29711070  0.38510759     0.13300
H2099       H  0.87543234  0.20111739  0.33115861     0.11000
H2100       H  0.85641343  0.17936188  0.37052811     0.13000
C2101       C  0.69221746  0.25512229  0.39483551     0.19100
C2102       C  0.68868759  0.27596861  0.38785068    -0.19000
C2103       C  0.70562346  0.29021745  0.38573441    -0.11300
C2104       C  0.72644039  0.28391887  0.39084878     0.21300
C2105       C  0.72988358  0.26328402  0.39844782    -0.20600
C2106       C  0.71292445  0.24905677  0.40065475    -0.11500
C2107       C  0.74496914  0.29803797  0.38715058    -0.15600
C2108       C  0.74360410  0.31930973  0.38806322    -0.29500
C2109       C  0.67427735  0.23979319  0.39425028    -0.03800
C2110       C  0.67726338  0.21911807  0.38988426    -0.40300
H2111       H  0.67291797  0.28097045  0.38314415     0.12500
H2112       H  0.70245660  0.30582690  0.37929215     0.12100
H2113       H  0.74577496  0.25811412  0.40252651     0.11500
H2114       H  0.71614339  0.23328113  0.40664444     0.11800
H2115       H  0.76023309  0.29066287  0.38376277     0.14500
H2116       H  0.72879980  0.32684764  0.39276652     0.13300
H2117       H  0.65820314  0.24612981  0.39423650     0.11000
H2118       H  0.69325280  0.21290065  0.38803927     0.13000
C2119       C  0.01706668  0.29885738  0.13770952     0.19100
C2120       C  0.00393575  0.28105483  0.13526283    -0.19000
C2121       C  0.98205272  0.28346397  0.13288245    -0.11300
C2122       C  0.97270973  0.30369846  0.13333468     0.21300
C2123       C  0.98567646  0.32157660  0.13679416    -0.20600
C2124       C  0.00770834  0.31916731  0.13900024    -0.11500
C2125       C  0.94966511  0.30516995  0.12881048    -0.15600
C2126       C  0.93683205  0.32145900  0.13422542    -0.29500
C2127       C  0.04041154  0.29554887  0.13790493    -0.03800
C2128       C  0.05415084  0.31010261  0.13043792    -0.40300
H2129       H  0.01071721  0.26526240  0.13438094     0.12500
H2130       H  0.97239392  0.26942152  0.13032240     0.12100
H2131       H  0.97902223  0.33741159  0.13711111     0.11500
H2132       H  0.01733151  0.33321208  0.14150118     0.11800
H2133       H  0.94264789  0.29131009  0.12124311     0.14500
H2134       H  0.94284299  0.33501610  0.14300231     0.13300
H2135       H  0.04630809  0.27998662  0.14247604     0.11000
H2136       H  0.04842430  0.32539456  0.12494249     0.13000
C2137       C  0.76816100  0.18875803  0.12255885     0.19100
C2138       C  0.78777266  0.18964124  0.13299453    -0.19000
C2139       C  0.80094922  0.20740137  0.13082115    -0.11300
C2140       C  0.79446508  0.22489720  0.11858385     0.21300
C2141       C  0.77490653  0.22396389  0.10798043    -0.20600
C2142       C  0.76196120  0.20588346  0.10968152    -0.11500
C2143       C  0.80687934  0.24494127  0.11878760    -0.15600
C2144       C  0.82823732  0.24496413  0.11892701    -0.29500
C2145       C  0.75327507  0.17128898  0.12775254    -0.03800
C2146       C  0.74032889  0.16211482  0.11350331    -0.40300
H2147       H  0.79264589  0.17677219  0.14329601     0.12500
H2148       H  0.81567882  0.20790036  0.13965415     0.12100
H2149       H  0.76947208  0.23740184  0.09874964     0.11500
H2150       H  0.74662770  0.20578516  0.10191868     0.11800
H2151       H  0.79826365  0.25985952  0.11981623     0.14500
H2152       H  0.83677166  0.23015436  0.11651497     0.13300
H2153       H  0.75290626  0.16585017  0.14413374     0.11000
H2154       H  0.74163101  0.16607974  0.09677035     0.13000
C2155       C  0.89377481  0.19700657  0.23729333     0.19100
C2156       C  0.89495674  0.21919292  0.23911364    -0.19000
C2157       C  0.89466140  0.23199707  0.22097662    -0.11300
C2158       C  0.89250039  0.22273293  0.20082007     0.21300
C2159       C  0.89238800  0.20055228  0.19892462    -0.20600
C2160       C  0.89335471  0.18774132  0.21699523    -0.11500
C2161       C  0.88621719  0.23573884  0.18243568    -0.15600
C2162       C  0.89511524  0.25454449  0.17777887    -0.29500
C2163       C  0.88899042  0.18412671  0.25635504    -0.03800
C2164       C  0.89576730  0.16406918  0.25874822    -0.40300
H2165       H  0.89500911  0.22663137  0.25461925     0.12500
H2166       H  0.89432909  0.24910575  0.22282746     0.12100
H2167       H  0.89043273  0.19316557  0.18352156     0.11500
H2168       H  0.89195928  0.17069012  0.21513681     0.11800
H2169       H  0.87304502  0.22998095  0.17286921     0.14500
H2170       H  0.90932951  0.25991527  0.18593824     0.13300
H2171       H  0.87828471  0.19091964  0.26812609     0.11000
H2172       H  0.90768502  0.15756804  0.24804420     0.13000
C2173       C  0.84809974  0.35999218  0.27754088     0.19100
C2174       C  0.84195992  0.37069105  0.25902670    -0.19000
C2175       C  0.84838161  0.36337989  0.23901711    -0.11300
C2176       C  0.86087131  0.34492339  0.23710297     0.21300
C2177       C  0.86761038  0.33466205  0.25569611    -0.20600
C2178       C  0.86143919  0.34216828  0.27571657    -0.11500
C2179       C  0.86476600  0.33441631  0.21624764    -0.15600
C2180       C  0.86368319  0.34440634  0.19734834    -0.29500
C2181       C  0.83757165  0.36547450  0.29796679    -0.03800
C2182       C  0.84638304  0.36213093  0.31711469    -0.40300
H2183       H  0.83140831  0.38424760  0.26001264     0.12500
H2184       H  0.84238842  0.37147856  0.22514967     0.12100
H2185       H  0.87699391  0.32027289  0.25470386     0.11500
H2186       H  0.86597602  0.33317934  0.28962058     0.11800
H2187       H  0.86776156  0.31741002  0.21648711     0.14500
H2188       H  0.86184223  0.36152868  0.19665535     0.13300
H2189       H  0.82127502  0.37115591  0.29715189     0.11000
H2190       H  0.86303074  0.35772282  0.31827363     0.13000
C2191       C  0.76654831  0.34870221  0.14071446     0.19100
C2192       C  0.75648246  0.36000245  0.15702314    -0.19000
C2193       C  0.73454477  0.36314282  0.15680007    -0.11300
C2194       C  0.72200622  0.35475602  0.14031047     0.21300
C2195       C  0.73217715  0.34395469  0.12359527    -0.20600
C2196       C  0.75433776  0.34115087  0.12363821    -0.11500
C2197       C  0.69837926  0.35426811  0.14225802    -0.15600
C2198       C  0.68770235  0.36899658  0.15344367    -0.29500
C2199       C  0.78896972  0.34233221  0.14381210    -0.03800
C2200       C  0.80337041  0.34032684  0.12811192    -0.40300
H2201       H  0.76553705  0.36565784  0.17049357     0.12500
H2202       H  0.72737523  0.37085225  0.17039718     0.12100
H2203       H  0.72287770  0.33699578  0.11093278     0.11500
H2204       H  0.76167797  0.33193235  0.11109137     0.11800
H2205       H  0.69011349  0.34001393  0.13705009     0.14500
H2206       H  0.69598290  0.38315229  0.15880499     0.13300
H2207       H  0.79387068  0.33926180  0.16005790     0.11000
H2208       H  0.79941380  0.34488466  0.11198231     0.13000
C2209       C  0.64525277  0.80870682  0.52026037     0.19100
C2210       C  0.65736530  0.79418358  0.50847866    -0.19000
C2211       C  0.65676500  0.79417829  0.48638806    -0.11300
C2212       C  0.64400170  0.80867308  0.47535540     0.21300
C2213       C  0.63215804  0.82366822  0.48702307    -0.20600
C2214       C  0.63276951  0.82368158  0.50928960    -0.11500
C2215       C  0.64275923  0.80628961  0.45192488    -0.15600
C2216       C  0.63284261  0.81958453  0.43843954    -0.29500
C2217       C  0.64521131  0.80639373  0.54377031    -0.03800
C2218       C  0.63655409  0.82026525  0.55756535    -0.40300
H2219       H  0.66707344  0.78243390  0.51641826     0.12500
H2220       H  0.66603884  0.78241533  0.47788083     0.12100
H2221       H  0.62190911  0.83495574  0.47919512     0.11500
H2222       H  0.62290552  0.83496165  0.51768270     0.11800
H2223       H  0.65044624  0.79227645  0.44535792     0.14500
H2224       H  0.62557547  0.83418142  0.44397639     0.13300
H2225       H  0.65247034  0.79206247  0.55006727     0.11000
H2226       H  0.62962307  0.83502763  0.55210003     0.13000
C2227       C  0.63433181  0.71334736  0.68739617     0.19100
C2228       C  0.65120221  0.69893869  0.68865530    -0.19000
C2229       C  0.65024283  0.68176753  0.70250181    -0.11300
C2230       C  0.63247243  0.67861840  0.71566844     0.21300
C2231       C  0.61498307  0.69245107  0.71379012    -0.20600
C2232       C  0.61589049  0.70971966  0.69963986    -0.11500
C2233       C  0.63457253  0.66257105  0.73277453    -0.15600
C2234       C  0.61889226  0.65498942  0.74533951    -0.29500
C2235       C  0.63795664  0.73298941  0.67498580    -0.03800
C2236       C  0.62278867  0.74454935  0.66545310    -0.40300
H2237       H  0.66556522  0.70139002  0.67938282     0.12500
H2238       H  0.66394519  0.67141193  0.70360603     0.12100
H2239       H  0.60116949  0.69070362  0.72394035     0.11500
H2240       H  0.60276722  0.72081347  0.69921377     0.11800
H2241       H  0.65070170  0.65709949  0.73571089     0.14500
H2242       H  0.60233649  0.65877633  0.74240588     0.13300
H2243       H  0.65449259  0.73771864  0.67286153     0.11000
H2244       H  0.60627772  0.73944615  0.66574821     0.13000
C2245       C  0.82899670  0.61524091  0.52277680     0.19100
C2246       C  0.84709449  0.61567249  0.50968061    -0.19000
C2247       C  0.84514553  0.61452268  0.48758211    -0.11300
C2248       C  0.82491291  0.61307201  0.47812665     0.21300
C2249       C  0.80685563  0.61278986  0.49130000    -0.20600
C2250       C  0.80881585  0.61391064  0.51332343    -0.11500
C2251       C  0.82159596  0.61276529  0.45475335    -0.15600
C2252       C  0.83711012  0.61016336  0.44019267    -0.29500
C2253       C  0.83154509  0.61682193  0.54615511    -0.03800
C2254       C  0.81744700  0.60823769  0.55979139    -0.40300
H2255       H  0.86280282  0.61689537  0.51658173     0.12500
H2256       H  0.85951958  0.61522016  0.47815742     0.12100
H2257       H  0.79107282  0.61193630  0.48450771     0.11500
H2258       H  0.79444112  0.61424234  0.52281830     0.11800
H2259       H  0.80534086  0.61463969  0.44924747     0.14500
H2260       H  0.85342747  0.60748782  0.44493393     0.13300
H2261       H  0.84580010  0.62441888  0.55227059     0.11000
H2262       H  0.80399740  0.59923546  0.55381904     0.13000
C2263       C  0.70949724  0.72209736  0.61400134     0.19100
C2264       C  0.70444755  0.70050469  0.61098040    -0.19000
C2265       C  0.71956383  0.68458369  0.61463878    -0.11300
C2266       C  0.74012030  0.68995473  0.62149235     0.21300
C2267       C  0.74539231  0.71147848  0.62392133    -0.20600
C2268       C  0.73041389  0.72737862  0.62006804    -0.11500
C2269       C  0.75603451  0.67373645  0.62778213    -0.15600
C2270       C  0.75717077  0.65395720  0.61965709    -0.29500
C2271       C  0.69204893  0.73815046  0.61242025    -0.03800
C2272       C  0.69435559  0.75903020  0.61673461    -0.40300
H2273       H  0.68850696  0.69586080  0.60641689     0.12500
H2274       H  0.71484705  0.66812425  0.61294906     0.12100
H2275       H  0.76115376  0.71602776  0.62915842     0.11500
H2276       H  0.73539023  0.74360930  0.62250213     0.11800
H2277       H  0.76809976  0.67874387  0.63905513     0.14500
H2278       H  0.74647730  0.64902900  0.60709820     0.13300
H2279       H  0.67612335  0.73214062  0.60937997     0.11000
H2280       H  0.70983111  0.76572235  0.62016080     0.13000
C2281       C  0.71751439  0.59086801  0.74336967     0.19100
C2282       C  0.73950852  0.59076215  0.74703877    -0.19000
C2283       C  0.75388985  0.58847465  0.73017362    -0.11300
C2284       C  0.74647968  0.58662861  0.70918061     0.21300
C2285       C  0.72450409  0.58549787  0.70569764    -0.20600
C2286       C  0.71016008  0.58774943  0.72250979    -0.11500
C2287       C  0.76076519  0.58781736  0.69034273    -0.15600
C2288       C  0.77986708  0.59745784  0.69075003    -0.29500
C2289       C  0.70284207  0.59669389  0.76100619    -0.03800
C2290       C  0.68189994  0.59238217  0.76064186    -0.40300
H2291       H  0.74559393  0.59306073  0.76293668     0.12500
H2292       H  0.77071016  0.58868889  0.73365779     0.12100
H2293       H  0.71834980  0.58407996  0.68972162     0.11500
H2294       H  0.69340797  0.58826931  0.71877335     0.11800
H2295       H  0.75413289  0.58330230  0.67508246     0.14500
H2296       H  0.78646582  0.60303593  0.70561628     0.13300
H2297       H  0.70928049  0.60602239  0.77401110     0.11000
H2298       H  0.67535613  0.58237808  0.74825431     0.13000
C2299       C  0.68238386  0.86572256  0.97722610     0.19100
C2300       C  0.66430010  0.86210220  0.98990274    -0.19000
C2301       C  0.66542225  0.86367384  0.01208948    -0.11300
C2302       C  0.68472652  0.86911434  0.02202697     0.21300
C2303       C  0.70270006  0.87286862  0.00926947    -0.20600
C2304       C  0.70159391  0.87122827  0.98721177    -0.11500
C2305       C  0.68701789  0.87177380  0.04541515    -0.15600
C2306       C  0.67283441  0.86511463  0.06009389    -0.29500
C2307       C  0.68060488  0.86500507  0.95365690    -0.03800
C2308       C  0.69734578  0.86067444  0.94099600    -0.40300
H2309       H  0.64923648  0.85814006  0.98260310     0.12500
H2310       H  0.65105547  0.86105439  0.02120527     0.12100
H2311       H  0.71771783  0.87731214  0.01639979     0.11500
H2312       H  0.71571824  0.87493305  0.97805913     0.11800
H2313       H  0.70169321  0.87907895  0.05087796     0.14500
H2314       H  0.65833509  0.85706641  0.05542040     0.13300
H2315       H  0.66521007  0.86822630  0.94659058     0.11000
H2316       H  0.71242792  0.85616374  0.94798029     0.13000
C2317       C  0.63348571  0.84293259  0.73197487     0.19100
C2318       C  0.62674639  0.83295863  0.75079111    -0.19000
C2319       C  0.63356748  0.84040272  0.77060754    -0.11300
C2320       C  0.64765385  0.85775503  0.77191851     0.21300
C2321       C  0.65375421  0.86817535  0.75316071    -0.20600
C2322       C  0.64661621  0.86100954  0.73341413    -0.11500
C2323       C  0.65909597  0.86287622  0.79186988    -0.15600
C2324       C  0.65101128  0.85992221  0.81149988    -0.29500
C2325       C  0.62961368  0.83230789  0.71124684    -0.03800
C2326       C  0.62932090  0.84276226  0.69259470    -0.40300
H2327       H  0.61692685  0.81880726  0.75010200     0.12500
H2328       H  0.62901717  0.83164807  0.78470660     0.12100
H2329       H  0.66488827  0.88132847  0.75372207     0.11500
H2330       H  0.65265798  0.86875152  0.71927974     0.11800
H2331       H  0.67553239  0.86807140  0.79022707     0.14500
H2332       H  0.63430014  0.85601150  0.81360210     0.13300
H2333       H  0.62865833  0.81505725  0.71126212     0.11000
H2334       H  0.62904964  0.86001497  0.69240148     0.13000
C2335       C  0.63375357  0.71952938  0.85911732     0.19100
C2336       C  0.64678169  0.72719220  0.87553018    -0.19000
C2337       C  0.65081974  0.74907288  0.87755637    -0.11300
C2338       C  0.64177929  0.76354410  0.86317627     0.21300
C2339       C  0.62745136  0.75598035  0.84796256    -0.20600
C2340       C  0.62321504  0.73429671  0.84613645    -0.11500
C2341       C  0.64939447  0.78576792  0.86111404    -0.15600
C2342       C  0.65642474  0.79797402  0.87716626    -0.29500
C2343       C  0.63287743  0.69629112  0.85449252    -0.03800
C2344       C  0.63112064  0.68914323  0.83440870    -0.40300
H2345       H  0.65490420  0.71617818  0.88590797     0.12500
H2346       H  0.66211332  0.75443501  0.88933067     0.12100
H2347       H  0.62015592  0.76684450  0.83682973     0.11500
H2348       H  0.61230801  0.72910250  0.83394436     0.11800
H2349       H  0.64954219  0.79234093  0.84514484     0.14500
H2350       H  0.65502535  0.79264372  0.89350293     0.13300
H2351       H  0.63614647  0.68511100  0.86720157     0.11000
H2352       H  0.62981723  0.70047846  0.82149706     0.13000
C2353       C  0.87971357  0.66546449  0.01627674     0.19100
C2354       C  0.89634715  0.66372073  0.00148832    -0.19000
C2355       C  0.89202144  0.66178890  0.97982116    -0.11300
C2356       C  0.87093927  0.66216018  0.97248660     0.21300
C2357       C  0.85427563  0.66407082  0.98724049    -0.20600
C2358       C  0.85858200  0.66539719  0.00899566    -0.11500
C2359       C  0.86635309  0.66284336  0.94944267    -0.15600
C2360       C  0.87717893  0.65104582  0.93527230    -0.29500
C2361       C  0.88482744  0.66896150  0.03897488    -0.03800
C2362       C  0.87318089  0.66052945  0.05481200    -0.40300
H2363       H  0.91273587  0.66403380  0.00671773     0.12500
H2364       H  0.90520033  0.66092253  0.96873019     0.12100
H2365       H  0.83794013  0.66476458  0.98188974     0.11500
H2366       H  0.84544873  0.66723956  0.02001434     0.11800
H2367       H  0.85420878  0.67380296  0.94398862     0.14500
H2368       H  0.88824393  0.63903888  0.94080478     0.13300
H2369       H  0.89884658  0.67835437  0.04271265     0.11000
H2370       H  0.86008770  0.64986999  0.05112869     0.13000
C2371       C  0.87613475  0.62755820  0.72077322     0.19100
C2372       C  0.88295725  0.64451183  0.73340977    -0.19000
C2373       C  0.88587043  0.64182539  0.75515213    -0.11300
C2374       C  0.88183003  0.62203962  0.76486689     0.21300
C2375       C  0.87585031  0.60479461  0.75207302    -0.20600
C2376       C  0.87318725  0.60744605  0.73015332    -0.11500
C2377       C  0.88012906  0.62030271  0.78835217    -0.15600
C2378       C  0.89065502  0.63356961  0.80125504    -0.29500
C2379       C  0.86886036  0.63231620  0.69896811    -0.03800
C2380       C  0.86814188  0.61794002  0.68324727    -0.40300
H2381       H  0.88498371  0.66020793  0.72660905     0.12500
H2382       H  0.88970481  0.65576531  0.76442970     0.12100
H2383       H  0.87225943  0.58952815  0.75919582     0.11500
H2384       H  0.86738079  0.59415738  0.72092556     0.11800
H2385       H  0.86748226  0.61040476  0.79484214     0.14500
H2386       H  0.90317681  0.64359387  0.79479802     0.13300
H2387       H  0.86275320  0.64821063  0.69610864     0.11000
H2388       H  0.87523519  0.60236246  0.68530024     0.13000
C2389       C  0.73120152  0.62570764  0.85318483     0.19100
C2390       C  0.74422645  0.63885287  0.86558545    -0.19000
C2391       C  0.76632111  0.63609955  0.86559283    -0.11300
C2392       C  0.77581271  0.62060724  0.85258432     0.21300
C2393       C  0.76277405  0.60726726  0.84040750    -0.20600
C2394       C  0.74061558  0.60952899  0.84098135    -0.11500
C2395       C  0.79909461  0.62081368  0.84884873    -0.15600
C2396       C  0.81330705  0.62298650  0.86459838    -0.29500
C2397       C  0.70853676  0.63132275  0.85021824    -0.03800
C2398       C  0.69286485  0.61678193  0.84894895    -0.40300
H2399       H  0.73733801  0.65173105  0.87470556     0.12500
H2400       H  0.77607388  0.64702025  0.87462523     0.12100
H2401       H  0.76979795  0.59557460  0.82989911     0.11500
H2402       H  0.73096454  0.59960981  0.83077654     0.11800
H2403       H  0.80453144  0.62094386  0.83244709     0.14500
H2404       H  0.80812532  0.62163637  0.88101826     0.13300
H2405       H  0.70487750  0.64800511  0.84766190     0.11000
H2406       H  0.69601789  0.60027450  0.85285509     0.13000
C2407       C  0.76634007  0.77345237  0.88177400     0.19100
C2408       C  0.76101975  0.75185300  0.88371814    -0.19000
C2409       C  0.77687591  0.73652099  0.88640462    -0.11300
C2410       C  0.79843821  0.74256959  0.88701265     0.21300
C2411       C  0.80366720  0.76417566  0.88585092    -0.20600
C2412       C  0.78790490  0.77943765  0.88302392    -0.11500
C2413       C  0.81611825  0.72702053  0.88719633    -0.15600
C2414       C  0.81446298  0.70757085  0.87860324    -0.29500
C2415       C  0.74923237  0.78906520  0.87719857    -0.03800
C2416       C  0.75171711  0.81014743  0.87966746    -0.40300
H2417       H  0.74456135  0.74679561  0.88285614     0.12500
H2418       H  0.77219046  0.72002516  0.88776707     0.12100
H2419       H  0.82015420  0.76922596  0.88614764     0.11500
H2420       H  0.79296671  0.79572306  0.88099399     0.11800
H2421       H  0.83175172  0.73283006  0.89172884     0.14500
H2422       H  0.79923057  0.70180420  0.87293761     0.13300
H2423       H  0.73414566  0.78299135  0.87137616     0.11000
H2424       H  0.76621675  0.81658736  0.88633890     0.13000
C2425       C  0.86623814  0.71744050  0.61949309     0.19100
C2426       C  0.88163532  0.72681642  0.63266190    -0.19000
C2427       C  0.88236895  0.74895960  0.63540917    -0.11300
C2428       C  0.86765475  0.76211194  0.62501619     0.21300
C2429       C  0.85324942  0.75288270  0.61080061    -0.20600
C2430       C  0.85277028  0.73086716  0.60775562    -0.11500
C2431       C  0.86460806  0.78465945  0.63130233    -0.15600
C2432       C  0.88055832  0.79812271  0.63610994    -0.29500
C2433       C  0.86318536  0.69384582  0.61993336    -0.03800
C2434       C  0.84383519  0.68503213  0.61726372    -0.40300
H2435       H  0.89228162  0.71692862  0.64181919     0.12500
H2436       H  0.89344182  0.75561475  0.64673614     0.12100
H2437       H  0.84181336  0.76270223  0.60255754     0.11500
H2438       H  0.84127374  0.72440743  0.59676814     0.11800
H2439       H  0.84828324  0.79016565  0.63273881     0.14500
H2440       H  0.89697038  0.79346969  0.63337672     0.13300
H2441       H  0.87612987  0.68395474  0.62557953     0.11000
H2442       H  0.83038357  0.69520660  0.61377350     0.13000
C2443       C  0.88154686  0.74734944  0.79273973     0.19100
C2444       C  0.87214823  0.74685212  0.77260966    -0.19000
C2445       C  0.87583832  0.76307988  0.75797970    -0.11300
C2446       C  0.88909659  0.78036293  0.76312047     0.21300
C2447       C  0.89850420  0.78094235  0.78330025    -0.20600
C2448       C  0.89488387  0.76454826  0.79797721    -0.11500
C2449       C  0.89145116  0.79889485  0.74860372    -0.15600
C2450       C  0.88819583  0.79749340  0.72754541    -0.29500
C2451       C  0.87580078  0.73022553  0.80795874    -0.03800
C2452       C  0.88709949  0.72490767  0.82527935    -0.40300
H2453       H  0.86156180  0.73396770  0.76826617     0.12500
H2454       H  0.86750589  0.76236089  0.74302418     0.12100
H2455       H  0.90840280  0.79428845  0.78783353     0.11500
H2456       H  0.90197067  0.76578616  0.81353506     0.11800
H2457       H  0.89450543  0.81434897  0.75567722     0.14500
H2458       H  0.88576460  0.78209337  0.72019275     0.13300
H2459       H  0.86165948  0.72099747  0.80422039     0.11000
H2460       H  0.90184572  0.73304512  0.82900930     0.13000
C2461       C  0.73344967  0.85419821  0.63243736     0.19100
C2462       C  0.75118538  0.84521060  0.62232490    -0.19000
C2463       C  0.77179733  0.85098413  0.62826713    -0.11300
C2464       C  0.77508006  0.86553954  0.64487880     0.21300
C2465       C  0.75730493  0.87522636  0.65439030    -0.20600
C2466       C  0.73663419  0.86982557  0.64803709    -0.11500
C2467       C  0.79635477  0.86789976  0.65482592    -0.15600
C2468       C  0.81479554  0.86527255  0.64415489    -0.29500
C2469       C  0.71245128  0.84390240  0.62969569    -0.03800
C2470       C  0.69376638  0.85423824  0.62940164    -0.40300
H2471       H  0.74907444  0.83284056  0.61055478     0.12500
H2472       H  0.78504406  0.84275929  0.62097346     0.12100
H2473       H  0.75940235  0.88622123  0.66744950     0.11500
H2474       H  0.72321214  0.87658823  0.65646906     0.11800
H2475       H  0.79674875  0.87019217  0.67192534     0.14500
H2476       H  0.81480138  0.86432683  0.62694728     0.13300
H2477       H  0.71234835  0.82662901  0.62885526     0.11000
H2478       H  0.69313157  0.87146622  0.62870875     0.13000
C2479       C  0.76435307  0.87296098  0.78378189     0.19100
C2480       C  0.76015745  0.86480245  0.76352287    -0.19000
C2481       C  0.77646289  0.86252904  0.74866235    -0.11300
C2482       C  0.79735829  0.86844969  0.75364727     0.21300
C2483       C  0.80147102  0.87776936  0.77351856    -0.20600
C2484       C  0.78507449  0.88001293  0.78849099    -0.11500
C2485       C  0.81444749  0.86246596  0.73853626    -0.15600
C2486       C  0.83402907  0.87112089  0.73795428    -0.29500
C2487       C  0.74766445  0.87039185  0.80026593    -0.03800
C2488       C  0.74771804  0.87978505  0.81944248    -0.40300
H2489       H  0.74437876  0.85915605  0.75951975     0.12500
H2490       H  0.77287063  0.85531973  0.73347137     0.12100
H2491       H  0.81746256  0.88215254  0.77805239     0.11500
H2492       H  0.78902431  0.88594970  0.80409241     0.11800
H2493       H  0.81051244  0.85021748  0.72700739     0.14500
H2494       H  0.83816708  0.88438365  0.74814755     0.13300
H2495       H  0.73526283  0.85879385  0.79689774     0.11000
H2496       H  0.75875892  0.89252626  0.82311731     0.13000
C2497       C  0.19233056  0.61343027  0.48969809     0.19100
C2498       C  0.20917462  0.61034261  0.50385257    -0.19000
C2499       C  0.20568708  0.61051126  0.52573706    -0.11300
C2500       C  0.18521865  0.61421945  0.53411203     0.21300
C2501       C  0.16825548  0.61703893  0.51999137    -0.20600
C2502       C  0.17174455  0.61679742  0.49799436    -0.11500
C2503       C  0.18116994  0.61461896  0.55742536    -0.15600
C2504       C  0.19645821  0.61984076  0.57135051    -0.29500
C2505       C  0.19718052  0.61331643  0.46654900    -0.03800
C2506       C  0.18262886  0.60963641  0.45139699    -0.40300
H2507       H  0.22513282  0.60753429  0.49794114     0.12500
H2508       H  0.21907999  0.60735261  0.53596422     0.12100
H2509       H  0.15232189  0.61975977  0.52600232     0.11500
H2510       H  0.15836083  0.61964578  0.48767389     0.11800
H2511       H  0.16536880  0.61054727  0.56320811     0.14500
H2512       H  0.21197683  0.62484478  0.56561078     0.13300
H2513       H  0.21371270  0.61537982  0.46184565     0.11000
H2514       H  0.16619153  0.60649115  0.45565327     0.13000
C2515       C  0.48620393  0.80747559  0.63354037     0.19100
C2516       C  0.49986012  0.79134852  0.62648636    -0.19000
C2517       C  0.52185011  0.79462330  0.62567378    -0.11300
C2518       C  0.53074772  0.81420130  0.63197042     0.21300
C2519       C  0.51713682  0.83010287  0.63966453    -0.20600
C2520       C  0.49510563  0.82684230  0.64041770    -0.11500
C2521       C  0.55413532  0.81814532  0.63156692    -0.15600
C2522       C  0.56740418  0.80756218  0.61854993    -0.29500
C2523       C  0.46288340  0.80335427  0.63384914    -0.03800
C2524       C  0.44835124  0.81893103  0.63245371    -0.40300
H2525       H  0.49347595  0.77616342  0.62146430     0.12500
H2526       H  0.53176878  0.78158124  0.62050228     0.12100
H2527       H  0.52357002  0.84513996  0.64504431     0.11500
H2528       H  0.48520148  0.83940314  0.64671223     0.11800
H2529       H  0.56056416  0.83013785  0.64217690     0.14500
H2530       H  0.56107182  0.79621254  0.60725248     0.13300
H2531       H  0.45754459  0.78691575  0.63407125     0.11000
H2532       H  0.45345022  0.83534543  0.63095041     0.13000
C2533       C  0.38780796  0.81865105  0.52993695     0.19100
C2534       C  0.39146403  0.80131920  0.51639386    -0.19000
C2535       C  0.39060184  0.80363459  0.49436841    -0.11300
C2536       C  0.38604659  0.82345602  0.48512024     0.21300
C2537       C  0.38302154  0.84103499  0.49857112    -0.20600
C2538       C  0.38372755  0.83867460  0.52077562    -0.11500
C2539       C  0.38514624  0.82599407  0.46153336    -0.15600
C2540       C  0.37857192  0.81002603  0.44888049    -0.29500
C2541       C  0.38919979  0.81490501  0.55331714    -0.03800
C2542       C  0.38119359  0.82777415  0.56851024    -0.40300
H2543       H  0.39501020  0.78579373  0.52289703     0.12500
H2544       H  0.39391838  0.78986690  0.48461969     0.12100
H2545       H  0.37990518  0.85657117  0.49188836     0.11500
H2546       H  0.38140331  0.85257521  0.53059478     0.11800
H2547       H  0.38995790  0.84105234  0.45456100     0.14500
H2548       H  0.37269738  0.79547689  0.45611108     0.13300
H2549       H  0.39661442  0.80012948  0.55825115     0.11000
H2550       H  0.37299100  0.84228431  0.56421374     0.13000
C2551       C  0.27426291  0.69459547  0.62737768     0.19100
C2552       C  0.27439914  0.71289553  0.61462545    -0.19000
C2553       C  0.29249161  0.72592582  0.61359655    -0.11300
C2554       C  0.31058360  0.72094721  0.62564216     0.21300
C2555       C  0.31062132  0.70231088  0.63782842    -0.20600
C2556       C  0.29272650  0.68924149  0.63867756    -0.11500
C2557       C  0.32810796  0.73628163  0.62895781    -0.15600
C2558       C  0.33372422  0.75203848  0.61560062    -0.29500
C2559       C  0.25431070  0.68225315  0.63021077    -0.03800
C2560       C  0.25453929  0.66130182  0.63418315    -0.40300
H2561       H  0.26029453  0.71740451  0.60592020     0.12500
H2562       H  0.29179999  0.74045599  0.60444304     0.12100
H2563       H  0.32424948  0.69833279  0.64751235     0.11500
H2564       H  0.29304023  0.67560199  0.64913412     0.11800
H2565       H  0.33642418  0.73501950  0.64402299     0.14500
H2566       H  0.32724753  0.75307408  0.59969765     0.13300
H2567       H  0.23921359  0.69055104  0.62911879     0.11000
H2568       H  0.26948306  0.65268585  0.63359234     0.13000
C2569       C  0.48085344  0.62605493  0.82909534     0.19100
C2570       C  0.49295534  0.62462095  0.81037865    -0.19000
C2571       C  0.51506006  0.62670051  0.81078828    -0.11300
C2572       C  0.52581445  0.62993737  0.83007334     0.21300
C2573       C  0.51371798  0.63227405  0.84872841    -0.20600
C2574       C  0.49145471  0.63024069  0.84831763    -0.11500
C2575       C  0.54955754  0.63035748  0.83100512    -0.15600
C2576       C  0.56137545  0.61881681  0.81739842    -0.29500
C2577       C  0.45750849  0.62206349  0.82761421    -0.03800
C2578       C  0.44298397  0.62654859  0.84279550    -0.40300
H2579       H  0.48527466  0.62167576  0.79529671     0.12500
H2580       H  0.52366207  0.62569234  0.79591026     0.12100
H2581       H  0.52156330  0.63496961  0.86376071     0.11500
H2582       H  0.48280527  0.63132528  0.86313873     0.11800
H2583       H  0.55729610  0.63923077  0.84359496     0.14500
H2584       H  0.55340853  0.60881277  0.80584566     0.13300
H2585       H  0.45189186  0.61533900  0.81275692     0.11000
H2586       H  0.44766672  0.63425948  0.85743756     0.13000
C2587       C  0.26942654  0.60056980  0.71751533     0.19100
C2588       C  0.29107068  0.60531513  0.71547316    -0.19000
C2589       C  0.30447607  0.60397295  0.73290664    -0.11300
C2590       C  0.29640552  0.59809946  0.75293451     0.21300
C2591       C  0.27482013  0.59252628  0.75482292    -0.20600
C2592       C  0.26140592  0.59351581  0.73713422    -0.11500
C2593       C  0.30951380  0.60089688  0.77223684    -0.15600
C2594       C  0.33086539  0.60001884  0.77155394    -0.29500
C2595       C  0.25528370  0.60699885  0.70014028    -0.03800
C2596       C  0.23835105  0.59586544  0.69353653    -0.40300
H2597       H  0.29742034  0.61113834  0.70054236     0.12500
H2598       H  0.32078754  0.60910858  0.73086984     0.12100
H2599       H  0.26817974  0.58829201  0.77014817     0.11500
H2600       H  0.24459055  0.59027023  0.73912686     0.11800
H2601       H  0.30151746  0.60574671  0.78677643     0.14500
H2602       H  0.33887262  0.59401656  0.75748593     0.13300
H2603       H  0.25936567  0.62174248  0.69203574     0.11000
H2604       H  0.23489911  0.58015521  0.69982077     0.13000
C2605       C  0.38609013  0.69341604  0.74149933     0.19100
C2606       C  0.37637973  0.69373226  0.72149678    -0.19000
C2607       C  0.37903066  0.71109564  0.70788176    -0.11300
C2608       C  0.39107188  0.72884430  0.71419685     0.21300
C2609       C  0.40106821  0.72844326  0.73410217    -0.20600
C2610       C  0.39887383  0.71074588  0.74753954    -0.11500
C2611       C  0.39116035  0.74864215  0.70123742    -0.15600
C2612       C  0.39139772  0.74824798  0.67987228    -0.29500
C2613       C  0.38021509  0.67621396  0.75659513    -0.03800
C2614       C  0.39343593  0.66782529  0.77112897    -0.40300
H2615       H  0.36620513  0.68071458  0.71662064     0.12500
H2616       H  0.37066337  0.71110390  0.69289896     0.12100
H2617       H  0.41018203  0.74204126  0.73944014     0.11500
H2618       H  0.40616425  0.71114560  0.76306954     0.11800
H2619       H  0.39005435  0.76377436  0.70947340     0.14500
H2620       H  0.39387151  0.73321314  0.67174981     0.13300
H2621       H  0.36413366  0.66993831  0.75541594     0.11000
H2622       H  0.41004606  0.67257488  0.77152342     0.13000
C2623       C  0.03133594  0.85837686  0.67445641     0.19100
C2624       C  0.01800793  0.85238868  0.65766858    -0.19000
C2625       C  0.99601442  0.85035690  0.66081453    -0.11300
C2626       C  0.98695424  0.85401076  0.68096937     0.21300
C2627       C  0.00041617  0.85907124  0.69793337    -0.20600
C2628       C  0.02233124  0.86133273  0.69474126    -0.11500
C2629       C  0.96363457  0.85265061  0.68494654    -0.15600
C2630       C  0.94908027  0.85723592  0.67004875    -0.29500
C2631       C  0.05460611  0.86075571  0.67062059    -0.03800
C2632       C  0.06668875  0.87435833  0.68183680    -0.40300
H2633       H  0.02460128  0.84956168  0.64200924     0.12500
H2634       H  0.98621842  0.84572683  0.64751225     0.12100
H2635       H  0.99390540  0.86160689  0.71367905     0.11500
H2636       H  0.03218994  0.86511745  0.70826225     0.11800
H2637       H  0.95831657  0.84946066  0.70107701     0.14500
H2638       H  0.95421810  0.86193275  0.65425630     0.13300
H2639       H  0.06186502  0.85134981  0.65807696     0.11000
H2640       H  0.05929854  0.88454567  0.69365134     0.13000
C2641       C  0.13947351  0.71930918  0.65254394     0.19100
C2642       C  0.14502474  0.73465529  0.63722870    -0.19000
C2643       C  0.13984508  0.75614539  0.64046128    -0.11300
C2644       C  0.12899834  0.76253051  0.65903128     0.21300
C2645       C  0.12228103  0.74690224  0.67344714    -0.20600
C2646       C  0.12746346  0.72560789  0.67026143    -0.11500
C2647       C  0.12736235  0.78511325  0.66584146    -0.15600
C2648       C  0.12950012  0.80213535  0.65304102    -0.29500
C2649       C  0.14843469  0.69748516  0.65263724    -0.03800
C2650       C  0.15566677  0.68666900  0.63560858    -0.40300
H2651       H  0.15458711  0.73038230  0.62356525     0.12500
H2652       H  0.14562954  0.76776126  0.62916415     0.12100
H2653       H  0.11396046  0.75132247  0.68788017     0.11500
H2654       H  0.12298634  0.71412874  0.68231011     0.11800
H2655       H  0.12553029  0.78782930  0.68280037     0.14500
H2656       H  0.13019551  0.80022586  0.63593811     0.13300
H2657       H  0.14939380  0.68985831  0.66810563     0.11000
H2658       H  0.15356751  0.69277326  0.61964635     0.13000
C2659       C  0.23443600  0.86320026  0.64323605     0.19100
C2660       C  0.25167544  0.87077929  0.65508474    -0.19000
C2661       C  0.27228772  0.86376536  0.65079044    -0.11300
C2662       C  0.27599788  0.84871375  0.63470374     0.21300
C2663       C  0.25886393  0.84180854  0.62224464    -0.20600
C2664       C  0.23824026  0.84914780  0.62631284    -0.11500
C2665       C  0.29682521  0.83787762  0.63272193    -0.15600
C2666       C  0.31530242  0.84718265  0.63805739    -0.29500
C2667       C  0.21274772  0.86675856  0.65158969    -0.03800
C2668       C  0.19500990  0.86688472  0.63978594    -0.40300
H2669       H  0.24903019  0.88130272  0.66844791     0.12500
H2670       H  0.28498750  0.86900579  0.66109175     0.12100
H2671       H  0.26131440  0.83002069  0.60994953     0.11500
H2672       H  0.22516726  0.84259944  0.61727868     0.11800
H2673       H  0.29680590  0.82137843  0.62760374     0.14500
H2674       H  0.31580269  0.86403685  0.64172651     0.13300
H2675       H  0.21116831  0.86789648  0.66876459     0.11000
H2676       H  0.19566916  0.86723374  0.62257138     0.13000
C2677       C  0.13590584  0.66766376  0.02694050     0.19100
C2678       C  0.13975485  0.68568285  0.01436556    -0.19000
C2679       C  0.14011622  0.68424768  0.99228148    -0.11300
C2680       C  0.13651410  0.66469594  0.98209590     0.21300
C2681       C  0.13372398  0.64641448  0.99453306    -0.20600
C2682       C  0.13328668  0.64784123  0.01676306    -0.11500
C2683       C  0.13513567  0.66346224  0.95856885    -0.15600
C2684       C  0.12590155  0.67920336  0.94756871    -0.29500
C2685       C  0.13452579  0.67072326  0.05039419    -0.03800
C2686       C  0.12926803  0.65552581  0.06454883    -0.40300
H2687       H  0.14219250  0.70108953  0.02164975     0.12500
H2688       H  0.14310793  0.69854222  0.98317057     0.12100
H2689       H  0.13122781  0.63112642  0.98703315     0.11500
H2690       H  0.13069312  0.63341304  0.02568220     0.11800
H2691       H  0.14099619  0.64942038  0.95041403     0.14500
H2692       H  0.11884982  0.69242024  0.95616881     0.13300
H2693       H  0.13755299  0.68667230  0.05630832     0.11000
H2694       H  0.12605625  0.63940115  0.05947709     0.13000
C2695       C  0.97863798  0.67129325  0.88453342     0.19100
C2696       C  0.98998180  0.68999486  0.88891766    -0.19000
C2697       C  0.01221978  0.68997868  0.88953323    -0.11300
C2698       C  0.02371991  0.67114686  0.88582805     0.21300
C2699       C  0.01237206  0.65226499  0.88219221    -0.20600
C2700       C  0.99008963  0.65230023  0.88146517    -0.11500
C2701       C  0.04743539  0.67063572  0.88630449    -0.15600
C2702       C  0.05949112  0.68774685  0.88165132    -0.29500
C2703       C  0.95494971  0.67219155  0.88395518    -0.03800
C2704       C  0.94285210  0.65801011  0.87346846    -0.40300
H2705       H  0.98159497  0.70474923  0.89177319     0.12500
H2706       H  0.02027744  0.70470303  0.89327344     0.12100
H2707       H  0.02078735  0.63745675  0.87973880     0.11500
H2708       H  0.98197005  0.63736946  0.87884402     0.11800
H2709       H  0.05515044  0.65566740  0.89004836     0.14500
H2710       H  0.05193623  0.70243345  0.87677060     0.13300
H2711       H  0.94724117  0.68548486  0.89184369     0.11000
H2712       H  0.95028015  0.64520571  0.86463431     0.13000
C2713       C  0.13998094  0.62954987  0.73785888     0.19100
C2714       C  0.14228718  0.61779436  0.75662944    -0.19000
C2715       C  0.13616248  0.62641840  0.77618853    -0.11300
C2716       C  0.12815193  0.64722012  0.77731654     0.21300
C2717       C  0.12502220  0.65863553  0.75846848    -0.20600
C2718       C  0.13061955  0.64980232  0.73886525    -0.11500
C2719       C  0.12694410  0.65862247  0.79782141    -0.15600
C2720       C  0.12164332  0.64936086  0.81634474    -0.29500
C2721       C  0.15100928  0.62231275  0.71833246    -0.03800
C2722       C  0.14436402  0.62709812  0.69864539    -0.40300
H2723       H  0.14982212  0.60233192  0.75626372     0.12500
H2724       H  0.13928254  0.61746853  0.79051196     0.12100
H2725       H  0.11923965  0.67483540  0.75902085     0.11500
H2726       H  0.12918605  0.65950303  0.72475459     0.11800
H2727       H  0.13201699  0.67516499  0.79784940     0.14500
H2728       H  0.11493796  0.63344714  0.81672473     0.13300
H2729       H  0.16620373  0.61435473  0.72035021     0.11000
H2730       H  0.12864216  0.63378154  0.69623661     0.13000
C2731       C  0.27044904  0.62603461  0.86497259     0.19100
C2732       C  0.25259735  0.62194236  0.85228997    -0.19000
C2733       C  0.23235051  0.62884186  0.85846850    -0.11300
C2734       C  0.22957525  0.64052475  0.87728151     0.21300
C2735       C  0.24727696  0.64386303  0.89046023    -0.20600
C2736       C  0.26751408  0.63641826  0.88452725    -0.11500
C2737       C  0.20937372  0.65218861  0.88139837    -0.15600
C2738       C  0.19005044  0.64452093  0.87614425    -0.29500
C2739       C  0.29191550  0.62342741  0.85535335    -0.03800
C2740       C  0.30984780  0.61841178  0.86590962    -0.40300
H2741       H  0.25450924  0.61433841  0.83697292     0.12500
H2742       H  0.21919447  0.62643996  0.84769637     0.12100
H2743       H  0.24560625  0.65306868  0.90489682     0.11500
H2744       H  0.28105014  0.64026383  0.89438643     0.11800
H2745       H  0.21061083  0.66818105  0.88780568     0.14500
H2746       H  0.18840222  0.62805753  0.87122547     0.13300
H2747       H  0.29313465  0.62687456  0.83846853     0.11000
H2748       H  0.30921417  0.61329312  0.88235721     0.13000
C2749       C  0.12736408  0.80395967  0.77234488     0.19100
C2750       C  0.13620034  0.80379671  0.79269637    -0.19000
C2751       C  0.13381352  0.78607405  0.80580769    -0.11300
C2752       C  0.12291947  0.76791047  0.79859673     0.21300
C2753       C  0.11387733  0.76814414  0.77827274    -0.20600
C2754       C  0.11580686  0.78617024  0.76532441    -0.11500
C2755       C  0.12266078  0.74812362  0.81142672    -0.15600
C2756       C  0.12143432  0.74877151  0.83269128    -0.29500
C2757       C  0.13328100  0.82128735  0.75764879    -0.03800
C2758       C  0.11967716  0.83030041  0.74397999    -0.40300
H2759       H  0.14551128  0.81719608  0.79821356     0.12500
H2760       H  0.14148684  0.78620534  0.82115513     0.12100
H2761       H  0.10567936  0.75423854  0.77229040     0.11500
H2762       H  0.10933910  0.78575465  0.74942714     0.11800
H2763       H  0.12430272  0.73296687  0.80332783     0.14500
H2764       H  0.11851837  0.76388305  0.84052043     0.13300
H2765       H  0.14973158  0.82665856  0.75795682     0.11000
H2766       H  0.10283417  0.82644585  0.74456671     0.13000
C2767       C  0.32384899  0.85028965  0.02660002     0.19100
C2768       C  0.30636077  0.85260686  0.01308712    -0.19000
C2769       C  0.30932806  0.85539704  0.99129820    -0.11300
C2770       C  0.32992250  0.85569092  0.98247099     0.21300
C2771       C  0.34739720  0.85216920  0.99576421    -0.20600
C2772       C  0.34444495  0.84966325  0.01769543    -0.11500
C2773       C  0.33317803  0.85942672  0.95940694    -0.15600
C2774       C  0.32104374  0.87338273  0.94882981    -0.29500
C2775       C  0.31985576  0.84893133  0.04982129    -0.03800
C2776       C  0.33375133  0.85602567  0.06436877    -0.40300
H2777       H  0.29032916  0.85278701  0.01948334     0.12500
H2778       H  0.29546898  0.85728322  0.98134873     0.12100
H2779       H  0.36336986  0.85187845  0.98923689     0.11500
H2780       H  0.35825033  0.84719373  0.02756988     0.11800
H2781       H  0.34562769  0.85072228  0.95112981     0.14500
H2782       H  0.30943374  0.88277675  0.95757530     0.13300
H2783       H  0.30415096  0.84379221  0.05501629     0.11000
H2784       H  0.34902740  0.86241607  0.05938158     0.13000
C2785       C  0.20140943  0.76638468  0.91529140     0.19100
C2786       C  0.19817549  0.78823579  0.91835030    -0.19000
C2787       C  0.21489476  0.80266314  0.91495400    -0.11300
C2788       C  0.23506003  0.79531175  0.90851154     0.21300
C2789       C  0.23867176  0.77338765  0.90741563    -0.20600
C2790       C  0.22214124  0.75904767  0.91112194    -0.11500
C2791       C  0.25169789  0.80976983  0.90006224    -0.15600
C2792       C  0.25429084  0.82999930  0.90630694    -0.29500
C2793       C  0.18281000  0.75192028  0.91303821    -0.03800
C2794       C  0.18283637  0.73752286  0.89729526    -0.40300
H2795       H  0.18238237  0.79425606  0.92169235     0.12500
H2796       H  0.21157497  0.81950899  0.91580225     0.12100
H2797       H  0.25412327  0.76734616  0.90272899     0.11500
H2798       H  0.22530616  0.74222513  0.90939729     0.11800
H2799       H  0.26234787  0.80337973  0.88800374     0.14500
H2800       H  0.24510170  0.83629676  0.91950923     0.13300
H2801       H  0.16825445  0.75510197  0.92182806     0.11000
H2802       H  0.19679263  0.73622723  0.88714330     0.13000
C2803       C  0.24024451  0.88996686  0.79697621     0.19100
C2804       C  0.24538059  0.89168735  0.77535393    -0.19000
C2805       C  0.22941807  0.89401082  0.76014942    -0.11300
C2806       C  0.20783602  0.89427018  0.76627298     0.21300
C2807       C  0.20279741  0.89371594  0.78797392    -0.20600
C2808       C  0.21874695  0.89146363  0.80317903    -0.11500
C2809       C  0.19011562  0.89344107  0.75069855    -0.15600
C2810       C  0.19248419  0.88584935  0.73088547    -0.29500
C2811       C  0.25741064  0.88468019  0.81224716    -0.03800
C2812       C  0.25563269  0.88743204  0.83334518    -0.40300
H2813       H  0.26180621  0.89074594  0.77014947     0.12500
H2814       H  0.23412512  0.89519442  0.74367103     0.12100
H2815       H  0.18633397  0.89396031  0.79316387     0.11500
H2816       H  0.21395346  0.88981515  0.81958736     0.11800
H2817       H  0.17412498  0.89669466  0.75653826     0.14500
H2818       H  0.20811276  0.88136472  0.72502723     0.13300
H2819       H  0.27191015  0.87773970  0.80585590     0.11000
H2820       H  0.24185640  0.89536477  0.84004366     0.13000
C2821       C  0.36296906  0.72599147  0.86304594     0.19100
C2822       C  0.37399888  0.74461809  0.85773102    -0.19000
C2823       C  0.36644054  0.76440306  0.86441929    -0.11300
C2824       C  0.34742561  0.76587211  0.87624704     0.21300
C2825       C  0.33664427  0.74715325  0.88185713    -0.20600
C2826       C  0.34440303  0.72737865  0.87547774    -0.11500
C2827       C  0.33693958  0.78654384  0.88041890    -0.15600
C2828       C  0.34738680  0.80519710  0.88081584    -0.29500
C2829       C  0.36930800  0.70561436  0.85325398    -0.03800
C2830       C  0.36713585  0.68700833  0.86343937    -0.40300
H2831       H  0.38812920  0.74388758  0.84785366     0.12500
H2832       H  0.37486030  0.77848010  0.85920019     0.12100
H2833       H  0.32177988  0.74788181  0.89059602     0.11500
H2834       H  0.33521470  0.71329448  0.87926518     0.11800
H2835       H  0.31970399  0.78645811  0.88195156     0.14500
H2836       H  0.36463994  0.80560773  0.88032507     0.13300
H2837       H  0.37479437  0.70587250  0.83686933     0.11000
H2838       H  0.36302537  0.68679661  0.88020784     0.13000
C2839       C  0.36570682  0.85405343  0.73719579     0.19100
C2840       C  0.35127530  0.86853028  0.74617772    -0.19000
C2841       C  0.34857282  0.86974151  0.76821374    -0.11300
C2842       C  0.35983721  0.85600871  0.78165313     0.21300
C2843       C  0.37477035  0.84200651  0.77273726    -0.20600
C2844       C  0.37794729  0.84125017  0.75071643    -0.11500
C2845       C  0.35378457  0.85375533  0.80433411    -0.15600
C2846       C  0.34886166  0.87032850  0.81692381    -0.29500
C2847       C  0.36475486  0.84980154  0.71405761    -0.03800
C2848       C  0.38147267  0.84369494  0.70208848    -0.40300
H2849       H  0.34139214  0.87827244  0.73605530     0.12500
H2850       H  0.33659793  0.88033029  0.77461291     0.12100
H2851       H  0.38339125  0.83106147  0.78278385     0.11500
H2852       H  0.38878870  0.82956040  0.74423197     0.11800
H2853       H  0.35275293  0.83773067  0.81071774     0.14500
H2854       H  0.35145778  0.88647541  0.81137735     0.13300
H2855       H  0.34914411  0.85070487  0.70673522     0.11000
H2856       H  0.39750975  0.84421118  0.70840646     0.13000
C2857       C  0.38471479  0.17852524  0.52408049     0.19100
C2858       C  0.37832796  0.16002873  0.51319642    -0.19000
C2859       C  0.37589669  0.16031740  0.49104164    -0.11300
C2860       C  0.37979482  0.17912102  0.47951037     0.21300
C2861       C  0.38626382  0.19737610  0.49052233    -0.20600
C2862       C  0.38875799  0.19705918  0.51243224    -0.11500
C2863       C  0.37820936  0.18082532  0.45605971    -0.15600
C2864       C  0.37053678  0.16595323  0.44269969    -0.29500
C2865       C  0.38753471  0.17965166  0.54742648    -0.03800
C2866       C  0.37879413  0.16615272  0.56155995    -0.40300
H2867       H  0.37551740  0.14529907  0.52159583     0.12500
H2868       H  0.37125558  0.14580218  0.48312565     0.12100
H2869       H  0.38948718  0.21206534  0.48211822     0.11500
H2870       H  0.39373543  0.21151722  0.52035264     0.11800
H2871       H  0.38384244  0.19572056  0.44931178     0.14500
H2872       H  0.36431651  0.15096092  0.44852934     0.13300
H2873       H  0.39615855  0.19340239  0.55338241     0.11000
H2874       H  0.36956181  0.15255299  0.55633804     0.13000
C2875       C  0.18420773  0.51565617  0.62835244     0.19100
C2876       C  0.20234663  0.50286987  0.62604505    -0.19000
C2877       C  0.20075631  0.48073890  0.62624961    -0.11300
C2878       C  0.18086495  0.47074259  0.62877075     0.21300
C2879       C  0.16263609  0.48349622  0.63072626    -0.20600
C2880       C  0.16424316  0.50573373  0.63061405    -0.11500
C2881       C  0.17854189  0.44717096  0.62824236    -0.15600
C2882       C  0.19447574  0.43379338  0.63317345    -0.29500
C2883       C  0.18709199  0.53912118  0.62756020    -0.03800
C2884       C  0.17277902  0.55365697  0.63424947    -0.40300
H2885       H  0.21790090  0.51004882  0.62396635     0.12500
H2886       H  0.21512234  0.47161329  0.62386143     0.12100
H2887       H  0.14708076  0.47621596  0.63231693     0.11500
H2888       H  0.14981712  0.51496947  0.63189289     0.11800
H2889       H  0.16319028  0.44064938  0.62373986     0.14500
H2890       H  0.20953190  0.44002689  0.63880624     0.13300
H2891       H  0.20244271  0.54470761  0.62180210     0.11000
H2892       H  0.15755814  0.54879810  0.64080947     0.13000
C2893       C  0.17387632  0.37106899  0.48180379     0.19100
C2894       C  0.18187849  0.38733514  0.49479659    -0.19000
C2895       C  0.18063908  0.38585587  0.51693765    -0.11300
C2896       C  0.17158815  0.36784265  0.52674558     0.21300
C2897       C  0.16327310  0.35170552  0.51378938    -0.20600
C2898       C  0.16451054  0.35318401  0.49158642    -0.11500
C2899       C  0.17058804  0.36554052  0.55034896    -0.15600
C2900       C  0.18516993  0.37444612  0.56317880    -0.29500
C2901       C  0.17664450  0.37299277  0.45830621    -0.03800
C2902       C  0.16533986  0.36191196  0.44386994    -0.40300
H2903       H  0.18913148  0.40131021  0.48777337     0.12500
H2904       H  0.18663477  0.39897198  0.52628203     0.12100
H2905       H  0.15621215  0.33767206  0.52088204     0.11500
H2906       H  0.15859162  0.34003854  0.48226154     0.11800
H2907       H  0.15829908  0.35546007  0.55719888     0.14500
H2908       H  0.19834254  0.38323382  0.55622518     0.13300
H2909       H  0.18852308  0.38424180  0.45265484     0.11000
H2910       H  0.15278794  0.35121669  0.44898623     0.13000
C2911       C  0.29066499  0.25380500  0.60219262     0.19100
C2912       C  0.26882217  0.25060254  0.60531337    -0.19000
C2913       C  0.25458159  0.26735759  0.60279684    -0.11300
C2914       C  0.26203092  0.28783861  0.59769509     0.21300
C2915       C  0.28362936  0.29065300  0.59276269    -0.20600
C2916       C  0.29791187  0.27376082  0.59505032    -0.11500
C2917       C  0.24817282  0.30671064  0.60045309    -0.15600
C2918       C  0.23479596  0.30760141  0.61710264    -0.29500
C2919       C  0.30552314  0.23718960  0.60957177    -0.03800
C2920       C  0.32515950  0.23443670  0.60161040    -0.40300
H2921       H  0.26287262  0.23533208  0.61066138     0.12500
H2922       H  0.23787529  0.26455837  0.60602651     0.12100
H2923       H  0.28969940  0.30627040  0.58873050     0.11500
H2924       H  0.31471776  0.27680128  0.59277240     0.11800
H2925       H  0.25098816  0.32078354  0.59084512     0.14500
H2926       H  0.23368894  0.29409304  0.62779814     0.13300
H2927       H  0.30022607  0.22717323  0.62264503     0.11000
H2928       H  0.33026495  0.24306816  0.58755342     0.13000
C2929       C  0.37808019  0.51569471  0.82682612     0.19100
C2930       C  0.36147502  0.50213291  0.82066930    -0.19000
C2931       C  0.36440503  0.48010514  0.82016079    -0.11300
C2932       C  0.38424130  0.47123512  0.82525690     0.21300
C2933       C  0.40093890  0.48480319  0.83122102    -0.20600
C2934       C  0.39782535  0.50683335  0.83229644    -0.11500
C2935       C  0.38803582  0.44800886  0.82343442    -0.15600
C2936       C  0.37335351  0.43361016  0.82940049    -0.29500
C2937       C  0.37507701  0.53902039  0.82523018    -0.03800
C2938       C  0.38353222  0.55305036  0.83897165    -0.40300
H2939       H  0.34624265  0.50863987  0.81605000     0.12500
H2940       H  0.35137414  0.47007502  0.81507059     0.12100
H2941       H  0.41641742  0.47833211  0.83500487     0.11500
H2942       H  0.41107081  0.51696833  0.83657259     0.11800
H2943       H  0.40357370  0.44264226  0.81805972     0.14500
H2944       H  0.35861623  0.43893159  0.83671653     0.13300
H2945       H  0.36532374  0.54482777  0.81226833     0.11000
H2946       H  0.39191822  0.54742647  0.85291551     0.13000
C2947       C  0.29741383  0.36339008  0.74438968     0.19100
C2948       C  0.29078664  0.34650248  0.73146031    -0.19000
C2949       C  0.27276922  0.34839594  0.71882244    -0.11300
C2950       C  0.26070680  0.36710549  0.71912386     0.21300
C2951       C  0.26695636  0.38396734  0.73228253    -0.20600
C2952       C  0.28535524  0.38222815  0.74472414    -0.11500
C2953       C  0.24204375  0.36890048  0.70504625    -0.15600
C2954       C  0.24469496  0.36612046  0.68411394    -0.29500
C2955       C  0.31591820  0.35976910  0.75842316    -0.03800
C2956       C  0.32860115  0.37504711  0.76648966    -0.40300
H2957       H  0.29962407  0.33173921  0.73111907     0.12500
H2958       H  0.26811227  0.33515646  0.70886400     0.12100
H2959       H  0.25779504  0.39851763  0.73268628     0.11500
H2960       H  0.28976398  0.39533933  0.75491690     0.11800
H2961       H  0.22640365  0.37188744  0.71178572     0.14500
H2962       H  0.26077546  0.36447442  0.67787953     0.13300
H2963       H  0.31945502  0.34325518  0.76203416     0.11000
H2964       H  0.32627384  0.39161719  0.76234071     0.13000
C2965       C  0.38701710  0.26100449  0.70731828     0.19100
C2966       C  0.39552893  0.25738500  0.72751565    -0.19000
C2967       C  0.39897454  0.27428729  0.74150844    -0.11300
C2968       C  0.39341029  0.29519064  0.73574105     0.21300
C2969       C  0.38546519  0.29883153  0.71528480    -0.20600
C2970       C  0.38221182  0.28195788  0.70123681    -0.11500
C2971       C  0.39407143  0.31332334  0.75092750    -0.15600
C2972       C  0.39328142  0.31065962  0.77208845    -0.29500
C2973       C  0.38219529  0.24257746  0.69342755    -0.03800
C2974       C  0.38232733  0.24391789  0.67214449    -0.40300
H2975       H  0.39943820  0.24139567  0.73251800     0.12500
H2976       H  0.40577961  0.27077320  0.75682862     0.12100
H2977       H  0.38096873  0.31470739  0.71042292     0.11500
H2978       H  0.37514838  0.28531131  0.68597510     0.11800
H2979       H  0.39216891  0.32924973  0.74452947     0.14500
H2980       H  0.39361616  0.29482989  0.77885764     0.13300
H2981       H  0.37875666  0.22740200  0.70095555     0.11000
H2982       H  0.38714058  0.25860502  0.66444189     0.13000
C2983       C  0.12642224  0.32337664  0.02537446     0.19100
C2984       C  0.12993728  0.34146068  0.01271629    -0.19000
C2985       C  0.12833657  0.34024981  0.99047654    -0.11300
C2986       C  0.12335490  0.32079449  0.98054549     0.21300
C2987       C  0.12038844  0.30273739  0.99323389    -0.20600
C2988       C  0.12216203  0.30389793  0.01523002    -0.11500
C2989       C  0.12054964  0.31823572  0.95722746    -0.15600
C2990       C  0.12799429  0.33164162  0.94225243    -0.29500
C2991       C  0.12735090  0.32479804  0.04904108    -0.03800
C2992       C  0.11586033  0.31148109  0.06129583    -0.40300
H2993       H  0.13347739  0.35661294  0.02006591     0.12500
H2994       H  0.13054783  0.35459067  0.98126791     0.12100
H2995       H  0.11680260  0.28749758  0.98606494     0.11500
H2996       H  0.12036570  0.28933490  0.02418308     0.11800
H2997       H  0.11260210  0.30377632  0.95207730     0.14500
H2998       H  0.13664813  0.34588874  0.94666978     0.13300
H2999       H  0.13741606  0.33676080  0.05635606     0.11000
H3000       H  0.10500368  0.30038301  0.05378859     0.13000
C3001       C  0.22956313  0.35628897  0.86999784     0.19100
C3002       C  0.24689574  0.34981780  0.88230955    -0.19000
C3003       C  0.26768972  0.35443267  0.87592075    -0.11300
C3004       C  0.27154370  0.36547463  0.85687197     0.21300
C3005       C  0.25415698  0.37285884  0.84508872    -0.20600
C3006       C  0.23332335  0.36843947  0.85162522    -0.11500
C3007       C  0.29312286  0.36673454  0.84733870    -0.15600
C3008       C  0.31121927  0.36487715  0.85850740    -0.29500
C3009       C  0.20842267  0.34694449  0.87461198    -0.03800
C3010       C  0.18990248  0.35565921  0.86863027    -0.40300
H3011       H  0.24437061  0.34019042  0.89635869     0.12500
H3012       H  0.28060334  0.34800730  0.88518574     0.12100
H3013       H  0.25671642  0.38118401  0.83023773     0.11500
H3014       H  0.22034366  0.37321967  0.84147501     0.11800
H3015       H  0.29408321  0.36815762  0.83015823     0.14500
H3016       H  0.31089734  0.36487108  0.87572621     0.13300
H3017       H  0.20822541  0.33139046  0.88214809     0.11000
H3018       H  0.18937566  0.37175114  0.86243396     0.13000
C3019       C  0.13244813  0.35943266  0.77328928     0.19100
C3020       C  0.14679304  0.37317381  0.76302512    -0.19000
C3021       C  0.14720087  0.37468987  0.74087549    -0.11300
C3022       C  0.13355549  0.36205706  0.72854101     0.21300
C3023       C  0.11851426  0.34907230  0.73882994    -0.20600
C3024       C  0.11775647  0.34794943  0.76102462    -0.11500
C3025       C  0.13770166  0.35888863  0.70556527    -0.15600
C3026       C  0.14572618  0.37396896  0.69261170    -0.29500
C3027       C  0.13571109  0.35457626  0.79607744    -0.03800
C3028       C  0.12016644  0.34845182  0.80952195    -0.40300
H3029       H  0.15845747  0.38194388  0.77213632     0.12500
H3030       H  0.15935373  0.38441219  0.73344243     0.12100
H3031       H  0.10809690  0.33891518  0.72964722     0.11500
H3032       H  0.10683668  0.33685237  0.76843638     0.11800
H3033       H  0.13590712  0.34278694  0.69954286     0.14500
H3034       H  0.14629153  0.39046641  0.69763971     0.13300
H3035       H  0.15197877  0.35526844  0.80184776     0.11000
H3036       H  0.10359481  0.34921595  0.80480217     0.13000
C3037       C  0.32292719  0.10918996  0.98140844     0.19100
C3038       C  0.30920123  0.09710048  0.99427202    -0.19000
C3039       C  0.31229466  0.09585509  0.01618740    -0.11300
C3040       C  0.32915403  0.10687114  0.02588162     0.21300
C3041       C  0.34335721  0.11836619  0.01303665    -0.20600
C3042       C  0.34021118  0.11971873  0.99105904    -0.11500
C3043       C  0.33175370  0.10704061  0.04936047    -0.15600
C3044       C  0.31474960  0.10709822  0.06237274    -0.29500
C3045       C  0.31805602  0.11082727  0.95828800    -0.03800
C3046       C  0.33156637  0.11859842  0.94353877    -0.40300
H3047       H  0.29588211  0.08867322  0.98735274     0.12500
H3048       H  0.30140902  0.08628505  0.02552686     0.12100
H3049       H  0.35650244  0.12692469  0.02011877     0.11500
H3050       H  0.35106714  0.12947927  0.98196338     0.11800
H3051       H  0.34763197  0.10852117  0.05594564     0.14500
H3052       H  0.29890597  0.10722330  0.05556037     0.13300
H3053       H  0.30260768  0.10506585  0.95313386     0.11000
H3054       H  0.34735702  0.12385215  0.94794432     0.13000
C3055       C  0.31485143  0.97740280  0.87496481     0.19100
C3056       C  0.29751014  0.99095459  0.87830218    -0.19000
C3057       C  0.30038914  0.01291424  0.87927737    -0.11300
C3058       C  0.32073333  0.02193654  0.87643160     0.21300
C3059       C  0.33809481  0.00838131  0.87289920    -0.20600
C3060       C  0.33521522  0.98632200  0.87205160    -0.11500
C3061       C  0.32438026  0.04527362  0.87785351    -0.15600
C3062       C  0.30884942  0.05946978  0.87432466    -0.29500
C3063       C  0.31089319  0.95415068  0.87485780    -0.03800
C3064       C  0.32567928  0.93965791  0.88001580    -0.40300
H3065       H  0.28169107  0.98448480  0.88069948     0.12500
H3066       H  0.28665508  0.02260967  0.88282109     0.12100
H3067       H  0.35391758  0.01489149  0.87069735     0.11500
H3068       H  0.34890443  0.97640237  0.86893573     0.11800
H3069       H  0.34023862  0.05089134  0.88179215     0.14500
H3070       H  0.29323959  0.05411227  0.86934831     0.13300
H3071       H  0.29469044  0.94886912  0.87192838     0.11000
H3072       H  0.34170540  0.94458487  0.88405784     0.13000
C3073       C  0.24838343  0.21755232  0.89326171     0.19100
C3074       C  0.25167157  0.23772049  0.88437415    -0.19000
C3075       C  0.23519409  0.25245371  0.88351542    -0.11300
C3076       C  0.21497442  0.24745924  0.89156932     0.21300
C3077       C  0.21188404  0.22775620  0.90173694    -0.20600
C3078       C  0.22849154  0.21287261  0.90256294    -0.11500
C3079       C  0.19721276  0.26196131  0.88618246    -0.15600
C3080       C  0.17830580  0.26290517  0.89626065    -0.29500
C3081       C  0.26490097  0.20118128  0.88929199    -0.03800
C3082       C  0.26653266  0.18243574  0.89944860    -0.40300
H3083       H  0.26678244  0.24172988  0.87704511     0.12500
H3084       H  0.23800231  0.26748738  0.87558288     0.12100
H3085       H  0.19637972  0.22324664  0.90777097     0.11500
H3086       H  0.22524932  0.19733315  0.90918316     0.11800
H3087       H  0.19985282  0.27240027  0.87265358     0.14500
H3088       H  0.17545309  0.25397099  0.91073282     0.13300
H3089       H  0.27586101  0.20442381  0.87627355     0.11000
H3090       H  0.25689368  0.17897034  0.91335559     0.13000
C3091       C  0.38123148  0.26566393  0.86677489     0.19100
C3092       C  0.38757139  0.24759167  0.85536659    -0.19000
C3093       C  0.38157506  0.22728164  0.86213771    -0.11300
C3094       C  0.36874528  0.22474024  0.88030805     0.21300
C3095       C  0.36351300  0.24273759  0.89241436    -0.20600
C3096       C  0.36986695  0.26303077  0.88584953    -0.11500
C3097       C  0.35722085  0.20456148  0.88445186    -0.15600
C3098       C  0.36403486  0.18535635  0.87794065    -0.29500
C3099       C  0.38260094  0.28665291  0.85625879    -0.03800
C3100       C  0.38354241  0.30533480  0.86656450    -0.40300
H3101       H  0.39605440  0.24928252  0.84044926     0.12500
H3102       H  0.38546619  0.21386635  0.85211691     0.12100
H3103       H  0.35337776  0.24121169  0.90628864     0.11500
H3104       H  0.36429705  0.27667785  0.89471557     0.11800
H3105       H  0.34139153  0.20590573  0.89136387     0.14500
H3106       H  0.38023585  0.18322803  0.87230095     0.13300
H3107       H  0.38100080  0.28678455  0.83906358     0.11000
H3108       H  0.38669476  0.30607169  0.88347655     0.13000
C3109       C  0.36409318  0.14036764  0.73085538     0.19100
C3110       C  0.35158546  0.12466834  0.74067458    -0.19000
C3111       C  0.35089055  0.12290158  0.76282059    -0.11300
C3112       C  0.36233339  0.13722353  0.77558129     0.21300
C3113       C  0.37562481  0.15227687  0.76569914    -0.20600
C3114       C  0.37669523  0.15370861  0.74353957    -0.11500
C3115       C  0.35796482  0.13925908  0.79869825    -0.15600
C3116       C  0.35079996  0.12333545  0.81114092    -0.29500
C3117       C  0.36113378  0.14478446  0.70793124    -0.03800
C3118       C  0.37694283  0.15109392  0.69491715    -0.40300
H3119       H  0.34159341  0.11435973  0.73119852     0.12500
H3120       H  0.34016045  0.11139323  0.76984989     0.12100
H3121       H  0.38441339  0.16364310  0.77516595     0.11500
H3122       H  0.38616334  0.16623719  0.73641683     0.11800
H3123       H  0.35967606  0.15502864  0.80555226     0.14500
H3124       H  0.35043385  0.10711349  0.80528988     0.13300
H3125       H  0.34512380  0.14324287  0.70165263     0.11000
H3126       H  0.39329184  0.15105706  0.70042023     0.13000
C3127       C  0.13938547  0.02209633  0.67070880     0.19100
C3128       C  0.13959949  0.00836862  0.65310486    -0.19000
C3129       C  0.14066311  0.98622342  0.65587239    -0.11300
C3130       C  0.14180582  0.97737521  0.67639140     0.21300
C3131       C  0.14263329  0.99120866  0.69384934    -0.20600
C3132       C  0.14142186  0.01321607  0.69110176    -0.11500
C3133       C  0.14225705  0.95400695  0.68059406    -0.15600
C3134       C  0.13529785  0.93894472  0.66702087    -0.29500
C3135       C  0.13737418  0.04556193  0.66753976    -0.03800
C3136       C  0.12825565  0.05823082  0.68223680    -0.40300
H3137       H  0.13854549  0.01477536  0.63719163     0.12500
H3138       H  0.14069403  0.97619558  0.64193675     0.12100
H3139       H  0.14393215  0.98494187  0.70980458     0.11500
H3140       H  0.14228302  0.02321686  0.70504028     0.11800
H3141       H  0.14730686  0.94907345  0.69631475     0.14500
H3142       H  0.12939447  0.94336579  0.65149456     0.13300
H3143       H  0.14299480  0.05241391  0.65271288     0.11000
H3144       H  0.12159228  0.05117388  0.69651348     0.13000
C3145       C  0.13283282  0.26901444  0.63590572     0.19100
C3146       C  0.12252395  0.25700854  0.65168082    -0.19000
C3147       C  0.12091959  0.23489044  0.64988121    -0.11300
C3148       C  0.13018580  0.22430856  0.63251883     0.21300
C3149       C  0.13950489  0.23639508  0.61620032    -0.20600
C3150       C  0.14052167  0.25860196  0.61768816    -0.11500
C3151       C  0.13422769  0.20110659  0.63354155    -0.15600
C3152       C  0.12018181  0.18702645  0.64154205    -0.29500
C3153       C  0.13955305  0.29105829  0.64090905    -0.03800
C3154       C  0.14208166  0.30657580  0.62641636    -0.40300
H3155       H  0.11683044  0.26463607  0.66603175     0.12500
H3156       H  0.11412442  0.22596462  0.66296122     0.12100
H3157       H  0.14707024  0.22855408  0.60286096     0.11500
H3158       H  0.14901605  0.26736938  0.60552027     0.11800
H3159       H  0.15018338  0.19578776  0.62949974     0.14500
H3160       H  0.10380190  0.19174190  0.64437942     0.13300
H3161       H  0.14448240  0.29411173  0.65716018     0.11000
H3162       H  0.13622756  0.30469249  0.61033946     0.13000
C3163       C  0.23066210  0.12318620  0.63594376     0.19100
C3164       C  0.24872222  0.11349257  0.64465649    -0.19000
C3165       C  0.26918600  0.12054399  0.63934695    -0.11300
C3166       C  0.27203912  0.13769019  0.62528773     0.21300
C3167       C  0.25400487  0.14652436  0.61556435    -0.20600
C3168       C  0.23351232  0.13929741  0.62071969    -0.11500
C3169       C  0.29287177  0.14886020  0.62311538    -0.15600
C3170       C  0.31187474  0.14034399  0.62823598    -0.29500
C3171       C  0.20968339  0.11919203  0.64619455    -0.03800
C3172       C  0.19064172  0.12318389  0.63727774    -0.40300
H3173       H  0.24695781  0.10123881  0.65662092     0.12500
H3174       H  0.28252154  0.11354374  0.64753468     0.12100
H3175       H  0.25570382  0.15987176  0.60482052     0.11500
H3176       H  0.21998507  0.14747336  0.61402602     0.11800
H3177       H  0.29230940  0.16547515  0.61839944     0.14500
H3178       H  0.31324323  0.12352628  0.63174261     0.13300
H3179       H  0.21007079  0.11451893  0.66281148     0.11000
H3180       H  0.18942381  0.12651668  0.62042324     0.13000
C3181       C  0.11647974  0.20164564  0.76606667     0.19100
C3182       C  0.11878435  0.19788271  0.78790367    -0.19000
C3183       C  0.11913290  0.21477175  0.80234925    -0.11300
C3184       C  0.11697525  0.23584390  0.79520472     0.21300
C3185       C  0.11401593  0.23954671  0.77347519    -0.20600
C3186       C  0.11351634  0.22268098  0.75906930    -0.11500
C3187       C  0.11945616  0.25441895  0.80952960    -0.15600
C3188       C  0.11614413  0.25375800  0.83064126    -0.29500
C3189       C  0.11813475  0.18336429  0.75115600    -0.03800
C3190       C  0.12335645  0.18552624  0.73052130    -0.40300
H3191       H  0.12106425  0.18185826  0.79374797     0.12500
H3192       H  0.12194565  0.21127497  0.81890396     0.12100
H3193       H  0.11227325  0.25562096  0.76757727     0.11500
H3194       H  0.11093463  0.22632907  0.74252338     0.11800
H3195       H  0.12455174  0.26928013  0.80229768     0.14500
H3196       H  0.11019344  0.23938526  0.83813030     0.13300
H3197       H  0.11676192  0.16746814  0.75779041     0.11000
H3198       H  0.12584089  0.20114991  0.72369000     0.13000
C3199       C  0.24133678  0.12682269  0.79383882     0.19100
C3200       C  0.24156891  0.11420194  0.77548564    -0.19000
C3201       C  0.22509487  0.11570987  0.76068605    -0.11300
C3202       C  0.20853674  0.13035999  0.76380520     0.21300
C3203       C  0.20848313  0.14313859  0.78201480    -0.20600
C3204       C  0.22458430  0.14122743  0.79704149    -0.11500
C3205       C  0.19213100  0.13402232  0.74754776    -0.15600
C3206       C  0.18307508  0.11837509  0.73620735    -0.29500
C3207       C  0.25939355  0.12608983  0.80876421    -0.03800
C3208       C  0.25646834  0.12757076  0.82983916    -0.40300
H3209       H  0.25453856  0.10326095  0.77259041     0.12500
H3210       H  0.22572070  0.10605337  0.74647338     0.12100
H3211       H  0.19601926  0.15475009  0.78452084     0.11500
H3212       H  0.22434318  0.15156768  0.81078041     0.11800
H3213       H  0.18651713  0.15024131  0.74559833     0.14500
H3214       H  0.18697165  0.10185785  0.73929719     0.13300
H3215       H  0.27536793  0.12461960  0.80226804     0.11000
H3216       H  0.24044352  0.12746302  0.83637885     0.13000
C3217       C  0.47970949  0.16803377  0.62221356     0.19100
C3218       C  0.49283414  0.15067010  0.62700450    -0.19000
C3219       C  0.51507934  0.15255139  0.62585078    -0.11300
C3220       C  0.52465264  0.17188922  0.61962671     0.21300
C3221       C  0.51142541  0.18902000  0.61437772    -0.20600
C3222       C  0.48931196  0.18715945  0.61560461    -0.11500
C3223       C  0.54814847  0.17506031  0.61778630    -0.15600
C3224       C  0.56295559  0.16177085  0.62560653    -0.29500
C3225       C  0.45609254  0.16576156  0.62337642    -0.03800
C3226       C  0.44340313  0.18240310  0.62779754    -0.40300
H3227       H  0.48585529  0.13565119  0.63178038     0.12500
H3228       H  0.52453610  0.13873863  0.62955823     0.12100
H3229       H  0.51823709  0.20399542  0.60922592     0.11500
H3230       H  0.47979840  0.20066527  0.61093105     0.11800
H3231       H  0.55353316  0.18954002  0.61002256     0.14500
H3232       H  0.55828424  0.14747031  0.63400972     0.13300
H3233       H  0.44908954  0.15021329  0.62061474     0.11000
H3234       H  0.45053330  0.19763496  0.63168427     0.13000
C3235       C  0.62964936  0.16058557  0.47768744     0.19100
C3236       C  0.64449384  0.17114323  0.49050829    -0.19000
C3237       C  0.64382218  0.16910918  0.51258811    -0.11300
C3238       C  0.62798081  0.15670946  0.52249935     0.21300
C3239       C  0.61370125  0.14534502  0.50968619    -0.20600
C3240       C  0.61440622  0.14733736  0.48749511    -0.11500
C3241       C  0.62568932  0.15604687  0.54608088    -0.15600
C3242       C  0.63048782  0.17303334  0.55815556    -0.29500
C3243       C  0.62966271  0.16525215  0.45448831    -0.03800
C3244       C  0.62088483  0.15265577  0.43958207    -0.40300
H3245       H  0.65650949  0.18129961  0.48341393     0.12500
H3246       H  0.65562966  0.17746912  0.52186100     0.12100
H3247       H  0.60143923  0.13557700  0.51689440     0.11500
H3248       H  0.60247305  0.13918293  0.47822487     0.11800
H3249       H  0.61870727  0.14203910  0.55342283     0.14500
H3250       H  0.63601332  0.18751756  0.55053945     0.13300
H3251       H  0.63740831  0.17988022  0.44945522     0.11000
H3252       H  0.61411131  0.13739164  0.44393805     0.13000
C3253       C  0.83360602  0.50894561  0.63433550     0.19100
C3254       C  0.81781240  0.49420743  0.64010881    -0.19000
C3255       C  0.82198447  0.47240979  0.64019408    -0.11300
C3256       C  0.84217869  0.46461911  0.63450898     0.21300
C3257       C  0.85826734  0.47929330  0.62934704    -0.20600
C3258       C  0.85404059  0.50123912  0.62911239    -0.11500
C3259       C  0.84653114  0.44127961  0.63413126    -0.15600
C3260       C  0.83144087  0.42736061  0.62806867    -0.29500
C3261       C  0.82781086  0.53199347  0.63440682    -0.03800
C3262       C  0.83944216  0.54773502  0.62555069    -0.40300
H3263       H  0.80203157  0.49957349  0.64450326     0.12500
H3264       H  0.80936973  0.46166882  0.64496809     0.12100
H3265       H  0.87403984  0.47374563  0.62518003     0.11500
H3266       H  0.86686540  0.51196884  0.62503657     0.11800
H3267       H  0.86230907  0.43560882  0.63816926     0.14500
H3268       H  0.81631652  0.43347162  0.62248243     0.13300
H3269       H  0.81259780  0.53611007  0.64155516     0.11000
H3270       H  0.85444056  0.54426263  0.61775507     0.13000
C3271       C  0.82499811  0.35572228  0.48394295     0.19100
C3272       C  0.83887406  0.36791680  0.49632506    -0.19000
C3273       C  0.83805398  0.36679879  0.51845218    -0.11300
C3274       C  0.82353948  0.35306416  0.52868638     0.21300
C3275       C  0.81001793  0.34047693  0.51626146    -0.20600
C3276       C  0.81081842  0.34163361  0.49412366    -0.11500
C3277       C  0.82127497  0.35229013  0.55215814    -0.15600
C3278       C  0.83666435  0.35867833  0.56544883    -0.29500
C3279       C  0.82528534  0.35859949  0.46055904    -0.03800
C3280       C  0.80781315  0.35582072  0.44870049    -0.40300
H3281       H  0.84990010  0.37889730  0.48886523     0.12500
H3282       H  0.84834171  0.37727237  0.52734289     0.12100
H3283       H  0.79873337  0.32975778  0.52371748     0.11500
H3284       H  0.80031633  0.33147325  0.48508963     0.11800
H3285       H  0.80636870  0.34636359  0.55869500     0.14500
H3286       H  0.85197351  0.36382085  0.55931469     0.13300
H3287       H  0.83969163  0.36476311  0.45318873     0.11000
H3288       H  0.79298404  0.35091387  0.45611743     0.13000
C3289       C  0.71491993  0.25224883  0.61841520     0.19100
C3290       C  0.73675486  0.24762252  0.61769075    -0.19000
C3291       C  0.75196790  0.26388695  0.61810916    -0.11300
C3292       C  0.74567530  0.28529665  0.61957537     0.21300
C3293       C  0.72382509  0.28996605  0.61965085    -0.20600
C3294       C  0.70859672  0.27368773  0.61918924    -0.11500
C3295       C  0.76120462  0.30316421  0.62151987    -0.15600
C3296       C  0.78146746  0.30077982  0.62805487    -0.29500
C3297       C  0.69953481  0.23425593  0.62015411    -0.03800
C3298       C  0.67844902  0.23580756  0.61662718    -0.40300
H3299       H  0.74210293  0.23127767  0.61705553     0.12500
H3300       H  0.76856385  0.25950441  0.61733935     0.12100
H3301       H  0.71848404  0.30629082  0.62071816     0.11500
H3302       H  0.69200085  0.27803217  0.62023408     0.11800
H3303       H  0.75523784  0.31914570  0.61889809     0.14500
H3304       H  0.78759502  0.28514857  0.63182636     0.13300
H3305       H  0.70591429  0.21903879  0.62520567     0.11000
H3306       H  0.67165897  0.25052098  0.61083170     0.13000
C3307       C  0.63445445  0.51419749  0.82741865     0.19100
C3308       C  0.65131992  0.50107157  0.82109592    -0.19000
C3309       C  0.65028468  0.47913300  0.82420056    -0.11300
C3310       C  0.63210088  0.46975589  0.83335159     0.21300
C3311       C  0.61575495  0.48295533  0.84087205    -0.20600
C3312       C  0.61682595  0.50500442  0.83783816    -0.11500
C3313       C  0.62931200  0.44629235  0.83383547    -0.15600
C3314       C  0.63663426  0.43406282  0.81789728    -0.29500
C3315       C  0.63505174  0.53693111  0.82110159    -0.03800
C3316       C  0.62445247  0.55243487  0.83129590    -0.40300
H3317       H  0.66516099  0.50777569  0.81325204     0.12500
H3318       H  0.66352961  0.46948226  0.81893702     0.12100
H3319       H  0.60165273  0.47610730  0.84809555     0.11500
H3320       H  0.60339334  0.51459391  0.84268076     0.11800
H3321       H  0.61952735  0.43927251  0.84625624     0.14500
H3322       H  0.64496749  0.44141555  0.80465832     0.13300
H3323       H  0.64490822  0.54110157  0.80749240     0.11000
H3324       H  0.61572386  0.54897649  0.84579702     0.13000
C3325       C  0.48271746  0.36235363  0.82409312     0.19100
C3326       C  0.49638154  0.35942484  0.80668793    -0.19000
C3327       C  0.51841666  0.35962837  0.80930782    -0.11300
C3328       C  0.52738513  0.36267202  0.82949803     0.21300
C3329       C  0.51379782  0.36462984  0.84710768    -0.20600
C3330       C  0.49165347  0.36459686  0.84446719    -0.11500
C3331       C  0.55085107  0.36358185  0.83230570    -0.15600
C3332       C  0.56344301  0.37259304  0.81752322    -0.29500
C3333       C  0.45937883  0.36258866  0.82015260    -0.03800
C3334       C  0.44496718  0.37108814  0.83352702    -0.40300
H3335       H  0.48998283  0.35722625  0.79089943     0.12500
H3336       H  0.52842331  0.35724449  0.79548753     0.12100
H3337       H  0.52033396  0.36656562  0.86286869     0.11500
H3338       H  0.48171129  0.36612338  0.85842313     0.11800
H3339       H  0.55773999  0.35722997  0.84675253     0.14500
H3340       H  0.55621665  0.38010876  0.80381475     0.13300
H3341       H  0.45390717  0.35615938  0.80511440     0.11000
H3342       H  0.44995709  0.37815625  0.84839284     0.13000
C3343       C  0.61703085  0.24773355  0.71217748     0.19100
C3344       C  0.60719457  0.26737541  0.70804559    -0.19000
C3345       C  0.60756480  0.28358820  0.72332845    -0.11300
C3346       C  0.61774605  0.28029393  0.74290836     0.21300
C3347       C  0.62641399  0.26027454  0.74730356    -0.20600
C3348       C  0.62608717  0.24422363  0.73213585    -0.11500
C3349       C  0.62231259  0.29762091  0.75814493    -0.15600
C3350       C  0.61309089  0.31690671  0.75849446    -0.29500
C3351       C  0.62116876  0.23171921  0.69547222    -0.03800
C3352       C  0.61070686  0.23012984  0.67697419    -0.40300
H3353       H  0.60043871  0.27075662  0.69265535     0.12500
H3354       H  0.60102284  0.29892380  0.71925106     0.12100
H3355       H  0.63438054  0.25730832  0.76222902     0.11500
H3356       H  0.63384283  0.22928530  0.73568695     0.11800
H3357       H  0.63474130  0.29435421  0.76965209     0.14500
H3358       H  0.59969303  0.32062853  0.74837335     0.13300
H3359       H  0.63437490  0.22095803  0.69833799     0.11000
H3360       H  0.59651470  0.23940221  0.67392544     0.13000
C3361       C  0.75671747  0.36791866  0.71825642     0.19100
C3362       C  0.75905095  0.35837417  0.73822207    -0.19000
C3363       C  0.74304759  0.35995339  0.75350405    -0.11300
C3364       C  0.72419578  0.37092523  0.74913242     0.21300
C3365       C  0.72218303  0.38137309  0.72946366    -0.20600
C3366       C  0.73826241  0.37979404  0.71411685    -0.11500
C3367       C  0.70683227  0.36995259  0.76514495    -0.15600
C3368       C  0.68626347  0.37356623  0.76069142    -0.29500
C3369       C  0.77306379  0.36336160  0.70187487    -0.03800
C3370       C  0.77521845  0.37371349  0.68328230    -0.40300
H3371       H  0.77310614  0.34914373  0.74184152     0.12500
H3372       H  0.74510152  0.35187522  0.76854133     0.12100
H3373       H  0.70818076  0.39051162  0.72564471     0.11500
H3374       H  0.73574626  0.38724216  0.69887910     0.11800
H3375       H  0.71091442  0.36404696  0.78082350     0.14500
H3376       H  0.68145982  0.37888691  0.74507711     0.13300
H3377       H  0.78381292  0.35029086  0.70527689     0.11000
H3378       H  0.76566205  0.38754722  0.67962455     0.13000
C3379       C  0.97911716  0.11219505  0.68197287     0.19100
C3380       C  0.99196762  0.12261663  0.69684261    -0.19000
C3381       C  0.01404831  0.12331611  0.69442509    -0.11300
C3382       C  0.02408153  0.11358006  0.67687418     0.21300
C3383       C  0.01120925  0.10288838  0.66208537    -0.20600
C3384       C  0.98899769  0.10217738  0.66454838    -0.11500
C3385       C  0.04777363  0.11353769  0.67386218    -0.15600
C3386       C  0.06122598  0.12512251  0.68582327    -0.29500
C3387       C  0.95570701  0.11171048  0.68593929    -0.03800
C3388       C  0.94083004  0.10684738  0.67135988    -0.40300
H3389       H  0.98487387  0.13025600  0.71056130     0.12500
H3390       H  0.02291720  0.13124906  0.70671732     0.12100
H3391       H  0.01837853  0.09494097  0.64859334     0.11500
H3392       H  0.97978567  0.09347411  0.65298782     0.11800
H3393       H  0.05440590  0.10326309  0.66166072     0.14500
H3394       H  0.05517635  0.13561438  0.69801610     0.13300
H3395       H  0.95040967  0.11629421  0.70173726     0.11000
H3396       H  0.94540715  0.10291633  0.65521902     0.13000
C3397       C  0.87750342  0.00739563  0.67941075     0.19100
C3398       C  0.88115703  0.99332765  0.69626389    -0.19000
C3399       C  0.88052014  0.97133552  0.69314748    -0.11300
C3400       C  0.87660571  0.96273614  0.67288307     0.21300
C3401       C  0.87261825  0.97678301  0.65603939    -0.20600
C3402       C  0.87317825  0.99886945  0.65918590    -0.11500
C3403       C  0.87626792  0.93927907  0.66904530    -0.15600
C3404       C  0.88724272  0.92558148  0.68122113    -0.29500
C3405       C  0.87917943  0.03069342  0.68356978    -0.03800
C3406       C  0.87021637  0.04576320  0.67136121    -0.40300
H3407       H  0.88440502  0.99939091  0.71201700     0.12500
H3408       H  0.88285274  0.96118644  0.70678321     0.12100
H3409       H  0.86945078  0.97065035  0.64030098     0.11500
H3410       H  0.87070933  0.00910796  0.64564293     0.11800
H3411       H  0.86717882  0.93323018  0.65571188     0.14500
H3412       H  0.89721868  0.93167373  0.69385017     0.13300
H3413       H  0.88781250  0.03560429  0.69765799     0.11000
H3414       H  0.86073463  0.04126125  0.65773492     0.13000
C3415       C  0.73027335  0.12670830  0.63300755     0.19100
C3416       C  0.73837173  0.11029363  0.64555613    -0.19000
C3417       C  0.76005610  0.10567755  0.64526263    -0.11300
C3418       C  0.77426137  0.11811137  0.63311682     0.21300
C3419       C  0.76591558  0.13337891  0.61921719    -0.20600
C3420       C  0.74402882  0.13764543  0.61911314    -0.11500
C3421       C  0.79761165  0.11747986  0.63701675    -0.15600
C3422       C  0.80481823  0.11402830  0.65675443    -0.29500
C3423       C  0.70828204  0.13402946  0.63695827    -0.03800
C3424       C  0.69523939  0.14073203  0.62157602    -0.40300
H3425       H  0.72799005  0.10153120  0.65620199     0.12500
H3426       H  0.76579204  0.09310832  0.65545426     0.12100
H3427       H  0.77646663  0.14305389  0.60958524     0.11500
H3428       H  0.73814373  0.15051538  0.60937977     0.11800
H3429       H  0.80852120  0.12300034  0.62476893     0.14500
H3430       H  0.79349864  0.11064702  0.66938471     0.13300
H3431       H  0.70260976  0.13385916  0.65329544     0.11000
H3432       H  0.69992132  0.13932053  0.60501610     0.13000
C3433       C  0.87531357  0.26013410  0.64165862     0.19100
C3434       C  0.88702929  0.24737827  0.65562099    -0.19000
C3435       C  0.88490301  0.22525018  0.65523667    -0.11300
C3436       C  0.87050413  0.21551619  0.64126931     0.21300
C3437       C  0.85923028  0.22817877  0.62687742    -0.20600
C3438       C  0.86183873  0.25029416  0.62682367    -0.11500
C3439       C  0.86456039  0.19290713  0.64410901    -0.15600
C3440       C  0.87892669  0.17762360  0.64795759    -0.29500
C3441       C  0.87430527  0.28335629  0.64553103    -0.03800
C3442       C  0.87079200  0.29788172  0.63025523    -0.40300
H3443       H  0.89714818  0.25462295  0.66748041     0.12500
H3444       H  0.89335340  0.21589127  0.66689001     0.12100
H3445       H  0.84776968  0.22101068  0.61625257     0.11500
H3446       H  0.85212759  0.25973311  0.61628133     0.11800
H3447       H  0.84770618  0.18900420  0.64437402     0.14500
H3448       H  0.89580339  0.18100569  0.64623479     0.13300
H3449       H  0.87481152  0.28848896  0.66200282     0.11000
H3450       H  0.87154627  0.29334655  0.61363673     0.13000
C3451       C  0.66905440  0.11924900  0.97525565     0.19100
C3452       C  0.68697648  0.11809853  0.98841231    -0.19000
C3453       C  0.68515417  0.12039827  0.01040587    -0.11300
C3454       C  0.66518072  0.12353184  0.02009147     0.21300
C3455       C  0.64724905  0.12544406  0.00692715    -0.20600
C3456       C  0.64910080  0.12323837  0.98473969    -0.11500
C3457       C  0.66285024  0.12476900  0.04377036    -0.15600
C3458       C  0.67647667  0.11482211  0.05694683    -0.29500
C3459       C  0.67218213  0.11521876  0.95204389    -0.03800
C3460       C  0.65847751  0.12049632  0.93646124    -0.40300
H3461       H  0.70259226  0.11531931  0.98162575     0.12500
H3462       H  0.69954410  0.11977131  0.01972230     0.12100
H3463       H  0.63168590  0.12809372  0.01386972     0.11500
H3464       H  0.63485116  0.12408605  0.97523313     0.11800
H3465       H  0.64935255  0.13328015  0.05040522     0.14500
H3466       H  0.68911556  0.10519220  0.05021867     0.13300
H3467       H  0.68720863  0.10798361  0.94747003     0.11000
H3468       H  0.64377596  0.12870063  0.94021342     0.13000
C3469       C  0.67503868  0.96474174  0.86946496     0.19100
C3470       C  0.65698539  0.97739800  0.87280605    -0.19000
C3471       C  0.65867138  0.99965088  0.87322558    -0.11300
C3472       C  0.67853178  0.00971087  0.87001256     0.21300
C3473       C  0.69637527  0.99694002  0.86598061    -0.20600
C3474       C  0.69468725  0.97481595  0.86564228    -0.11500
C3475       C  0.68177010  0.03324052  0.87074006    -0.15600
C3476       C  0.66646511  0.04765871  0.87477978    -0.29500
C3477       C  0.67327302  0.94110874  0.87001338    -0.03800
C3478       C  0.68923213  0.92914320  0.87756929    -0.40300
H3479       H  0.64162675  0.97003739  0.87555292     0.12500
H3480       H  0.64437843  0.00867174  0.87618907     0.12100
H3481       H  0.71181531  0.00411163  0.86315656     0.11500
H3482       H  0.70883070  0.96562749  0.86223367     0.11800
H3483       H  0.69784421  0.03901895  0.86790008     0.14500
H3484       H  0.65019223  0.04272579  0.87763763     0.13300
H3485       H  0.65861356  0.93359590  0.86484202     0.11000
H3486       H  0.70318630  0.93698550  0.88402984     0.13000
C3487       C  0.64385889  0.11502692  0.71923340     0.19100
C3488       C  0.62809466  0.11886127  0.73475028    -0.19000
C3489       C  0.63264495  0.11638990  0.75638843    -0.11300
C3490       C  0.65306270  0.11017456  0.76288480     0.21300
C3491       C  0.66835831  0.10524125  0.74736086    -0.20600
C3492       C  0.66370048  0.10731862  0.72576622    -0.11500
C3493       C  0.65987708  0.11196466  0.78534017    -0.15600
C3494       C  0.64729824  0.10814483  0.80230729    -0.29500
C3495       C  0.64105445  0.12106802  0.69652441    -0.03800
C3496       C  0.63035464  0.13869895  0.69108309    -0.40300
H3497       H  0.61248832  0.12445728  0.73023750     0.12500
H3498       H  0.62063100  0.12060945  0.76800145     0.12100
H3499       H  0.68424862  0.10054999  0.75198985     0.11500
H3500       H  0.67610598  0.10421233  0.71419355     0.11800
H3501       H  0.67614700  0.11721785  0.78801957     0.14500
H3502       H  0.63161691  0.10116629  0.80036417     0.13300
H3503       H  0.65104164  0.11340120  0.68467030     0.11000
H3504       H  0.62237385  0.14781689  0.70338568     0.13000
C3505       C  0.62657888  0.26183055  0.85131833     0.19100
C3506       C  0.61728989  0.24396479  0.84173678    -0.19000
C3507       C  0.62411626  0.22346707  0.84685960    -0.11300
C3508       C  0.64063187  0.22045517  0.86154282     0.21300
C3509       C  0.64934413  0.23827710  0.87173169    -0.20600
C3510       C  0.64231537  0.25876579  0.86681291    -0.11500
C3511       C  0.65093798  0.19944192  0.86446235    -0.15600
C3512       C  0.64106177  0.18076149  0.86104285    -0.29500
C3513       C  0.62245632  0.28310413  0.84207424    -0.03800
C3514       C  0.62590148  0.30158537  0.85230754    -0.40300
H3515       H  0.60542326  0.24592702  0.82947761     0.12500
H3516       H  0.61738174  0.21019663  0.83826760     0.12100
H3517       H  0.66225423  0.23639472  0.88290364     0.11500
H3518       H  0.65028144  0.27215482  0.87408206     0.11800
H3519       H  0.66759181  0.19941618  0.86905158     0.14500
H3520       H  0.62411534  0.18029946  0.85784849     0.13300
H3521       H  0.61828791  0.28351269  0.82534303     0.11000
H3522       H  0.62877083  0.30177742  0.86928236     0.13000
C3523       C  0.79990825  0.10832100  0.77105996     0.19100
C3524       C  0.79882114  0.11704387  0.79151611    -0.19000
C3525       C  0.78065258  0.11422679  0.80411501    -0.11300
C3526       C  0.76293129  0.10309407  0.79623818     0.21300
C3527       C  0.76403137  0.09433677  0.77576783    -0.20600
C3528       C  0.78247746  0.09663983  0.76338208    -0.11500
C3529       C  0.74245835  0.10276289  0.80812358    -0.15600
C3530       C  0.74151055  0.10167328  0.82944146    -0.29500
C3531       C  0.81821190  0.11377791  0.75716032    -0.03800
C3532       C  0.82719353  0.09999119  0.74348039    -0.40300
H3533       H  0.81191863  0.12642751  0.79759047     0.12500
H3534       H  0.78007855  0.12172280  0.81957342     0.12100
H3535       H  0.75044012  0.08605506  0.76921461     0.11500
H3536       H  0.78269986  0.09023137  0.74743289     0.11800
H3537       H  0.72787623  0.10452205  0.79909641     0.14500
H3538       H  0.75594863  0.09873251  0.83837795     0.13300
H3539       H  0.82457338  0.12981369  0.75834088     0.11000
H3540       H  0.82212208  0.08348112  0.74329922     0.13000
C3541       C  0.87229301  0.30982629  0.98086102     0.19100
C3542       C  0.87027332  0.32789120  0.99375088    -0.19000
C3543       C  0.86907018  0.32596398  0.01587732    -0.11300
C3544       C  0.87030464  0.30583752  0.02561824     0.21300
C3545       C  0.87246633  0.28781353  0.01266646    -0.20600
C3546       C  0.87356455  0.28974230  0.99059079    -0.11500
C3547       C  0.86940016  0.30273610  0.04906232    -0.15600
C3548       C  0.87266700  0.31828766  0.06338159    -0.29500
C3549       C  0.87359905  0.31236851  0.95740355    -0.03800
C3550       C  0.86660857  0.29732914  0.94394455    -0.40300
H3551       H  0.86931801  0.34353573  0.98664859     0.12500
H3552       H  0.86693278  0.34027058  0.02511373     0.12100
H3553       H  0.87357643  0.27213441  0.01967686     0.11500
H3554       H  0.87581137  0.27549084  0.98124680     0.11800
H3555       H  0.86689686  0.28662151  0.05478395     0.14500
H3556       H  0.87600468  0.33439736  0.05826725     0.13300
H3557       H  0.88002304  0.32713296  0.95109553     0.11000
H3558       H  0.85910745  0.28306368  0.95018046     0.13000
C3559       C  0.02063570  0.30818703  0.87827830     0.19100
C3560       C  0.00770001  0.28997125  0.87838871    -0.19000
C3561       C  0.98551559  0.29166341  0.87848308    -0.11300
C3562       C  0.97564701  0.31173381  0.87855629     0.21300
C3563       C  0.98852236  0.32995743  0.87813387    -0.20600
C3564       C  0.01072321  0.32827977  0.87802090    -0.11500
C3565       C  0.95208473  0.31423188  0.87810437    -0.15600
C3566       C  0.93855719  0.29920392  0.88520301    -0.29500
C3567       C  0.04422488  0.30536325  0.87783410    -0.03800
C3568       C  0.05828342  0.32117894  0.88115298    -0.40300
H3569       H  0.01479268  0.27429662  0.87827403     0.12500
H3570       H  0.97625002  0.27717799  0.87800006     0.12100
H3571       H  0.98136312  0.34559986  0.87785340     0.11500
H3572       H  0.01982780  0.34282896  0.87733876     0.11800
H3573       H  0.94570087  0.32906763  0.87204630     0.14500
H3574       H  0.94468254  0.28474323  0.89225117     0.13300
H3575       H  0.05027590  0.28943932  0.87501513     0.11000
H3576       H  0.05285512  0.33710782  0.88469382     0.13000
C3577       C  0.75356396  0.19660706  0.88284779     0.19100
C3578       C  0.75463035  0.21439867  0.86948375    -0.19000
C3579       C  0.77225089  0.22781882  0.86975199    -0.11300
C3580       C  0.78924441  0.22389991  0.88365229     0.21300
C3581       C  0.78800382  0.20640652  0.89742498    -0.20600
C3582       C  0.77029824  0.19286860  0.89711519    -0.11500
C3583       C  0.80904029  0.23677384  0.88284815    -0.15600
C3584       C  0.80937108  0.25680003  0.87549122    -0.29500
C3585       C  0.73611431  0.18122016  0.87914824    -0.03800
C3586       C  0.73167925  0.16402711  0.89112572    -0.40300
H3587       H  0.74213019  0.21747697  0.85810419     0.12500
H3588       H  0.77282447  0.24060974  0.85830578     0.12100
H3589       H  0.80099643  0.20293227  0.90810268     0.11500
H3590       H  0.77029803  0.17911181  0.90738090     0.11800
H3591       H  0.82375121  0.22943571  0.88805756     0.14500
H3592       H  0.79465236  0.26471555  0.87134002     0.13300
H3593       H  0.72702040  0.18359613  0.86468777     0.11000
H3594       H  0.73924614  0.16144564  0.90633634     0.13000
C3595       C  0.88803322  0.20097501  0.75391906     0.19100
C3596       C  0.89463957  0.19663856  0.77481506    -0.19000
C3597       C  0.89184808  0.21177915  0.79089391    -0.11300
C3598       C  0.88246300  0.23154978  0.78638719     0.21300
C3599       C  0.87660109  0.23608094  0.76544308    -0.20600
C3600       C  0.87947107  0.22106187  0.74941085    -0.11500
C3601       C  0.87675852  0.24711750  0.80316102    -0.15600
C3602       C  0.88579319  0.24795807  0.82246433    -0.29500
C3603       C  0.88786145  0.18481477  0.73665261    -0.03800
C3604       C  0.89199963  0.16392786  0.73913800    -0.40300
H3605       H  0.90142767  0.18149147  0.77908343     0.12500
H3606       H  0.89622408  0.20754320  0.80692108     0.12100
H3607       H  0.86929263  0.25115362  0.76153573     0.11500
H3608       H  0.87421589  0.22491941  0.73351749     0.11800
H3609       H  0.86439656  0.25853496  0.79932876     0.14500
H3610       H  0.89903022  0.23767706  0.82640306     0.13300
H3611       H  0.88181843  0.19013400  0.72141014     0.11000
H3612       H  0.89793536  0.15773988  0.75400672     0.13000
C3613       C  0.87444077  0.36475443  0.73607522     0.19100
C3614       C  0.86622103  0.37447952  0.75439220    -0.19000
C3615       C  0.87205495  0.36736129  0.77458214    -0.11300
C3616       C  0.88606950  0.35011072  0.77680630     0.21300
C3617       C  0.89528644  0.34126764  0.75849609    -0.20600
C3618       C  0.88967282  0.34857713  0.73832309    -0.11500
C3619       C  0.88806655  0.33842513  0.79718518    -0.15600
C3620       C  0.88383985  0.34680624  0.81643428    -0.29500
C3621       C  0.86388400  0.36876272  0.71543313    -0.03800
C3622       C  0.87304396  0.36502412  0.69646327    -0.40300
H3623       H  0.85426099  0.38677371  0.75306996     0.12500
H3624       H  0.86422263  0.37426787  0.78824817     0.12100
H3625       H  0.90588341  0.32777275  0.75975464     0.11500
H3626       H  0.89596110  0.34033242  0.72460026     0.11800
H3627       H  0.89111840  0.32145497  0.79601251     0.14500
H3628       H  0.88201221  0.36384164  0.81839261     0.13300
H3629       H  0.84714381  0.37305743  0.71598920     0.11000
H3630       H  0.89002322  0.36207298  0.69533172     0.13000
C3631       C  0.72992340  0.35212876  0.86210823     0.19100
C3632       C  0.74046664  0.33690160  0.87448230    -0.19000
C3633       C  0.76269889  0.33695825  0.87595599    -0.11300
C3634       C  0.77482964  0.35192790  0.86455823     0.21300
C3635       C  0.76427895  0.36744567  0.85259407    -0.20600
C3636       C  0.74202995  0.36776406  0.85160616    -0.11500
C3637       C  0.79815356  0.34931355  0.86200725    -0.15600
C3638       C  0.81109546  0.34305391  0.87777508    -0.29500
C3639       C  0.70691563  0.34934111  0.85758919    -0.03800
C3640       C  0.69355500  0.36554228  0.85350287    -0.40300
H3641       H  0.73151050  0.32445155  0.88238109     0.12500
H3642       H  0.77042300  0.32442852  0.88480791     0.12100
H3643       H  0.77331900  0.37885680  0.84334127     0.11500
H3644       H  0.73443126  0.37933424  0.84145413     0.11800
H3645       H  0.80465861  0.35140854  0.84612322     0.14500
H3646       H  0.80512997  0.34219832  0.89396379     0.13300
H3647       H  0.70102513  0.33311706  0.85650061     0.11000
H3648       H  0.69868635  0.38185045  0.85593463     0.13000
loop_ 
_geom_bond_atom_site_label_1 
_geom_bond_atom_site_label_2 
_geom_bond_distance 
_geom_bond_site_symmetry_2 
_ccdc_geom_bond_type 
O1          Cr19   1.962       .  S
O1            C9   1.257       .  A
O2          Cr19   2.005       .  S
O2            C3   1.263       .  A
C3            O4   1.262       .  A
C3         C3638   1.480       .  S
O4          Cr20   1.997       .  S
O5          Cr20   2.021       .  S
O5            C6   1.268       .  A
C6            O7   1.257       .  A
C6         C3550   1.477       .  S
O7          Cr21   1.969       .  S
O8          Cr21   2.018       .  S
O8            C9   1.270       .  A
C9         C3584   1.469       .  S
O10         Cr19   2.001       .  S
O10          C18   1.264       .  A
O11         Cr19   1.962       .  S
O11          C12   1.258       .  A
C12          O13   1.272       .  A
C12        C3620   1.479       .  S
O13         Cr20   2.037       .  S
O14         Cr20   1.986       .  S
O14          C15   1.266       .  A
C15          O16   1.268       .  A
C15        C3566   1.478       .  S
O16         Cr21   2.008       .  S
O17         Cr21   1.980       .  S
O17          C18   1.257       .  A
C18        C3602   1.477       .  S
Cr19         O22   1.764       .  S
Cr20         O22   1.772       .  S
Cr21         O22   1.766       .  S
O23         Cr41   1.979       .  S
O23          C31   1.260       .  A
O24         Cr41   1.991       .  S
O24          C25   1.263       .  A
C25          O26   1.263       .  A
C25        C3494   1.480       .  S
O26         Cr42   1.997       .  S
O27         Cr42   2.012       .  S
O27          C28   1.267       .  A
C28          O29   1.263       .  A
C28        C3476   1.482       .  S
O29         Cr43   1.982       .  S
O30         Cr43   2.018       .  S
O30          C31   1.267       .  A
C31        C3530   1.479       .  S
O32         Cr41   1.985       .  S
O32          C40   1.263       .  A
O33         Cr41   1.974       .  S
O33          C34   1.259       .  A
C34          O35   1.266       .  A
C34        C3512   1.477       .  S
O35         Cr42   2.015       .  S
O36         Cr42   1.995       .  S
O36          C37   1.263       .  A
C37          O38   1.267       .  A
C37        C3460   1.491       .  S
O38         Cr43   2.011       .  S
O39         Cr43   1.989       .  S
O39          C40   1.261       .  A
C40        C3586   1.475       .  S
Cr41         O44   1.768       .  S
Cr42         O44   1.778       .  S
Cr43         O44   1.776       .  S
O45         Cr63   1.961       .  S
O45          C53   1.260       .  A
O46         Cr63   2.008       .  S
O46          C47   1.262       .  A
C47          O48   1.257       .  A
C47        C3440   1.476       .  S
O48         Cr64   1.988       .  S
O49         Cr64   2.020       .  S
O49          C50   1.269       .  A
C50          O51   1.262       .  A
C50        C3388   1.484       .  S
O51         Cr65   1.976       .  S
O52         Cr65   2.033       .  S
O52          C53   1.273       .  A
C53        C3604   1.479       .  S
O54         Cr63   2.007       .  S
O54          C62   1.263       .  A
O55         Cr63   1.948       .  S
O55          C56   1.255       .  A
C56          O57   1.274       .  A
C56        C3422   1.469       .  S
O57         Cr64   2.043       .  S
O58         Cr64   1.977       .  S
O58          C59   1.260       .  A
C59          O60   1.270       .  A
C59        C3406   1.483       .  S
O60         Cr65   2.019       .  S
O61         Cr65   1.993       .  S
O61          C62   1.260       .  A
C62        C3532   1.479       .  S
Cr63         O66   1.764       .  S
Cr64         O66   1.771       .  S
Cr65         O66   1.766       .  S
O67         Cr85   1.972       .  S
O67          C75   1.261       .  A
O68         Cr85   2.003       .  S
O68          C69   1.263       .  A
C69          O70   1.262       .  A
C69        C3640   1.480       .  S
O70         Cr86   1.996       .  S
O71         Cr86   2.022       .  S
O71          C72   1.269       .  A
C72          O73   1.258       .  A
C72        C3314   1.474       .  S
O73         Cr87   1.967       .  S
O74         Cr87   2.010       .  S
O74          C75   1.265       .  A
C75        C3368   1.473       .  S
O76         Cr85   1.992       .  S
O76          C84   1.264       .  A
O77         Cr85   1.962       .  S
O77          C78   1.258       .  A
C78          O79   1.271       .  A
C78        C3514   1.478       .  S
O79         Cr86   2.032       .  S
O80         Cr86   1.993       .  S
O80          C81   1.264       .  A
C81          O82   1.264       .  A
C81        C3332   1.475       .  S
O82         Cr87   1.999       .  S
O83         Cr87   1.988       .  S
O83          C84   1.260       .  A
C84        C3350   1.477       .  S
Cr85         O88   1.760       .  S
Cr86         O88   1.773       .  S
Cr87         O88   1.768       .  S
O89        Cr107   1.979       .  S
O89          C97   1.260       .  A
O90        Cr107   1.999       .  S
O90          C91   1.263       .  A
C91          O92   1.262       .  A
C91        C3442   1.479       .  S
O92        Cr108   1.998       .  S
O93        Cr108   1.999       .  S
O93          C94   1.263       .  A
C94          O95   1.261       .  A
C94        C3278   1.472       .  S
O95        Cr109   1.981       .  S
O96        Cr109   2.016       .  S
O96          C97   1.268       .  A
C97        C3296   1.480       .  S
O98        Cr107   1.990       .  S
O98         C106   1.263       .  A
O99        Cr107   1.972       .  S
O99         C100   1.259       .  A
C100        O101   1.267       .  A
C100       C3622   1.477       .  S
O101       Cr108   2.023       .  S
O102       Cr108   2.002       .  S
O102        C103   1.268       .  A
C103        O104   1.267       .  A
C103       C3260   1.481       .  S
O104       Cr109   2.002       .  S
O105       Cr109   1.984       .  S
O105        C106   1.259       .  A
C106       C3370   1.475       .  S
Cr107       O110   1.765       .  S
Cr108       O110   1.775       .  S
Cr109       O110   1.769       .  S
O111       Cr129   1.994       .  S
O111        C119   1.264       .  A
O112       Cr129   1.960       .  S
O112        C113   1.255       .  A
C113        O114   1.273       .  A
C113       C3496   1.476       .  S
O114       Cr130   2.045       .  S
O115       Cr130   1.978       .  S
O115        C116   1.260       .  A
C116        O117   1.270       .  A
C116       C3224   1.483       .  S
O117       Cr131   2.017       .  S
O118       Cr131   1.985       .  S
O118        C119   1.259       .  A
C119       C3352   1.475       .  S
O120       Cr129   1.973       .  S
O120        C128   1.261       .  A
O121       Cr129   2.009       .  S
O121        C122   1.265       .  A
C122        O123   1.257       .  A
C122       C3424   1.474       .  S
O123       Cr130   1.982       .  S
O124       Cr130   2.030       .  S
O124        C125   1.270       .  A
C125        O126   1.258       .  A
C125       C3242   1.478       .  S
O126       Cr131   1.966       .  S
O127       Cr131   2.026       .  S
O127        C128   1.270       .  A
C128       C3298   1.482       .  S
Cr129       O132   1.762       .  S
Cr130       O132   1.774       .  S
Cr131       O132   1.769       .  S
O133       Cr151   2.002       .  S
O133        C141   1.264       .  A
O134       Cr151   1.961       .  S
O134        C135   1.259       .  A
C135        O136   1.274       .  A
C135       C3172   1.481       .  S
O136       Cr152   2.043       .  S
O137       Cr152   1.996       .  S
O137        C138   1.265       .  A
C138        O139   1.267       .  A
C138       C3136   1.482       .  S
O139       Cr153   2.007       .  S
O140       Cr153   1.984       .  S
O140        C141   1.258       .  A
C141       C3206   1.472       .  S
O142       Cr151   1.970       .  S
O142        C150   1.259       .  A
O143       Cr151   2.005       .  S
O143        C144   1.263       .  A
C144        O145   1.261       .  A
C144       C3152   1.479       .  S
O145       Cr152   1.998       .  S
O146       Cr152   2.033       .  S
O146        C147   1.270       .  A
C147        O148   1.257       .  A
C147       C3386   1.478       .  S
O148       Cr153   1.966       .  S
O149       Cr153   2.020       .  S
O149        C150   1.270       .  A
C150       C3190   1.474       .  S
Cr151       O154   1.763       .  S
Cr152       O154   1.773       .  S
Cr153       O154   1.761       .  S
O155       Cr173   1.999       .  S
O155        C163   1.265       .  A
O156       Cr173   1.963       .  S
O156        C157   1.259       .  A
C157        O158   1.271       .  A
C157       C3098   1.476       .  S
O158       Cr174   2.032       .  S
O159       Cr174   1.976       .  S
O159        C160   1.260       .  A
C160        O161   1.269       .  A
C160       C3046   1.481       .  S
O161       Cr175   2.017       .  S
O162       Cr175   1.987       .  S
O162        C163   1.260       .  A
C163       C3082   1.480       .  S
O164       Cr173   1.974       .  S
O164        C172   1.261       .  A
O165       Cr173   2.007       .  S
O165        C166   1.263       .  A
C166        O167   1.259       .  A
C166       C3116   1.480       .  S
O167       Cr174   1.992       .  S
O168       Cr174   2.019       .  S
O168        C169   1.268       .  A
C169        O170   1.256       .  A
C169       C3062   1.473       .  S
O170       Cr175   1.964       .  S
O171       Cr175   2.016       .  S
O171        C172   1.268       .  A
C172       C3208   1.471       .  S
Cr173       O176   1.762       .  S
Cr174       O176   1.773       .  S
Cr175       O176   1.771       .  S
O177       Cr195   1.971       .  S
O177        C185   1.261       .  A
O178       Cr195   2.007       .  S
O178        C179   1.265       .  A
C179        O180   1.261       .  A
C179       C3028   1.478       .  S
O180       Cr196   1.992       .  S
O181       Cr196   2.005       .  S
O181        C182   1.264       .  A
C182        O183   1.262       .  A
C182       C3568   1.478       .  S
O183       Cr197   1.986       .  S
O184       Cr197   2.017       .  S
O184        C185   1.268       .  A
C185       C3188   1.478       .  S
O186       Cr195   1.995       .  S
O186        C194   1.264       .  A
O187       Cr195   1.966       .  S
O187        C188   1.258       .  A
C188        O189   1.266       .  A
C188       C3010   1.474       .  S
O189       Cr196   2.023       .  S
O190       Cr196   1.985       .  S
O190        C191   1.263       .  A
C191        O192   1.270       .  A
C191       C2990   1.484       .  S
O192       Cr197   2.010       .  S
O193       Cr197   1.990       .  S
O193        C194   1.260       .  A
C194       C3080   1.480       .  S
Cr195       O198   1.764       .  S
Cr196       O198   1.774       .  S
Cr197       O198   1.773       .  S
O199       Cr217   1.964       .  S
O199        C207   1.256       .  A
O200       Cr217   1.991       .  S
O200        C201   1.263       .  A
C201        O202   1.260       .  A
C201       C3100   1.471       .  S
O202       Cr218   1.988       .  S
O203       Cr218   2.013       .  S
O203        C204   1.267       .  A
C204        O205   1.263       .  A
C204       C3334   1.479       .  S
O205       Cr219   1.980       .  S
O206       Cr219   2.031       .  S
O206        C207   1.271       .  A
C207       C2972   1.473       .  S
O208       Cr217   1.995       .  S
O208        C216   1.263       .  A
O209       Cr217   1.968       .  S
O209        C210   1.259       .  A
C210        O211   1.267       .  A
C210       C3008   1.474       .  S
O211       Cr218   2.017       .  S
O212       Cr218   1.976       .  S
O212        C213   1.258       .  A
C213        O214   1.268       .  A
C213       C2936   1.476       .  S
O214       Cr219   2.023       .  S
O215       Cr219   1.996       .  S
O215        C216   1.262       .  A
C216       C2956   1.482       .  S
Cr217       O220   1.759       .  S
Cr218       O220   1.770       .  S
Cr219       O220   1.771       .  S
O221       Cr239   1.994       .  S
O221        C229   1.261       .  A
O222       Cr239   1.989       .  S
O222        C223   1.259       .  A
C223        O224   1.260       .  A
C223       C3026   1.478       .  S
O224       Cr240   1.999       .  S
O225       Cr240   2.022       .  S
O225        C226   1.272       .  A
C226        O227   1.262       .  A
C226       C2882   1.478       .  S
O227       Cr241   1.973       .  S
O228       Cr241   1.998       .  S
O228        C229   1.261       .  A
C229       C2954   1.471       .  S
O230       Cr239   1.995       .  S
O230        C238   1.264       .  A
O231       Cr239   1.958       .  S
O231        C232   1.258       .  A
C232        O233   1.271       .  A
C232       C3154   1.475       .  S
O233       Cr240   2.028       .  S
O234       Cr240   2.001       .  S
O234        C235   1.262       .  A
C235        O236   1.260       .  A
C235       C2900   1.481       .  S
O236       Cr241   1.996       .  S
O237       Cr241   1.989       .  S
O237        C238   1.264       .  A
C238       C2918   1.468       .  S
Cr239       O242   1.773       .  S
Cr240       O242   1.776       .  S
Cr241       O242   1.774       .  S
O243       Cr261   2.006       .  S
O243        C251   1.267       .  A
O244       Cr261   1.968       .  S
O244        C245   1.259       .  A
C245        O246   1.271       .  A
C245       C3170   1.482       .  S
O246       Cr262   2.032       .  S
O247       Cr262   1.982       .  S
O247        C248   1.260       .  A
C248        O249   1.267       .  A
C248       C2866   1.479       .  S
O249       Cr263   2.004       .  S
O250       Cr263   1.975       .  S
O250        C251   1.258       .  A
C251       C2920   1.473       .  S
O252       Cr261   1.981       .  S
O252        C260   1.262       .  A
O253       Cr261   2.013       .  S
O253        C254   1.266       .  A
C254        O255   1.260       .  A
C254       C3118   1.478       .  S
O255       Cr262   1.988       .  S
O256       Cr262   2.032       .  S
O256        C257   1.271       .  A
C257        O258   1.257       .  A
C257       C3226   1.479       .  S
O258       Cr263   1.965       .  S
O259       Cr263   2.008       .  S
O259        C260   1.265       .  A
C260       C2974   1.474       .  S
Cr261       O264   1.765       .  S
Cr262       O264   1.772       .  S
Cr263       O264   1.767       .  S
O265       Cr283   1.980       .  S
O265        C273   1.260       .  A
O266       Cr283   2.012       .  S
O266        C267   1.267       .  A
C267        O268   1.263       .  A
C267       C2846   1.479       .  S
O268       Cr284   1.991       .  S
O269       Cr284   2.011       .  S
O269        C270   1.265       .  A
C270        O271   1.260       .  A
C270       C3064   1.475       .  S
O271       Cr285   1.973       .  S
O272       Cr285   2.003       .  S
O272        C273   1.263       .  A
C273       C2812   1.475       .  S
O274       Cr283   2.008       .  S
O274        C282   1.268       .  A
O275       Cr283   1.971       .  S
O275        C276   1.258       .  A
C276        O277   1.264       .  A
C276       C2828   1.474       .  S
O277       Cr284   2.010       .  S
O278       Cr284   1.992       .  S
O278        C279   1.264       .  A
C279        O280   1.264       .  A
C279       C2774   1.474       .  S
O280       Cr285   2.001       .  S
O281       Cr285   1.975       .  S
O281        C282   1.259       .  A
C282       C2792   1.475       .  S
Cr283       O286   1.766       .  S
Cr284       O286   1.772       .  S
Cr285       O286   1.771       .  S
O287       Cr305   1.987       .  S
O287        C295   1.262       .  A
O288       Cr305   1.981       .  S
O288        C289   1.259       .  A
C289        O290   1.268       .  A
C289       C2738   1.483       .  S
O290       Cr306   2.024       .  S
O291       Cr306   1.996       .  S
O291        C292   1.262       .  A
C292        O293   1.260       .  A
C292       C2684   1.473       .  S
O293       Cr307   1.991       .  S
O294       Cr307   1.994       .  S
O294        C295   1.264       .  A
C295       C2794   1.468       .  S
O296       Cr305   1.989       .  S
O296        C304   1.261       .  A
O297       Cr305   1.989       .  S
O297        C298   1.263       .  A
C298        O299   1.261       .  A
C298       C2720   1.473       .  S
O299       Cr306   1.988       .  S
O300       Cr306   2.027       .  S
O300        C301   1.272       .  A
C301        O302   1.261       .  A
C301       C2702   1.479       .  S
O302       Cr307   1.973       .  S
O303       Cr307   1.998       .  S
O303        C304   1.261       .  A
C304       C2756   1.474       .  S
Cr305       O308   1.767       .  S
Cr306       O308   1.782       .  S
Cr307       O308   1.774       .  S
O309       Cr327   2.001       .  S
O309        C317   1.263       .  A
O310       Cr327   1.969       .  S
O310        C311   1.260       .  A
C311        O312   1.269       .  A
C311       C2648   1.483       .  S
O312       Cr328   2.029       .  S
O313       Cr328   1.989       .  S
O313        C314   1.263       .  A
C314        O315   1.264       .  A
C314       C2632   1.477       .  S
O315       Cr329   2.004       .  S
O316       Cr329   1.991       .  S
O316        C317   1.259       .  A
C317       C2758   1.475       .  S
O318       Cr327   1.966       .  S
O318        C326   1.256       .  A
O319       Cr327   1.989       .  S
O319        C320   1.262       .  A
C320        O321   1.261       .  A
C320       C2668   1.468       .  S
O321       Cr328   1.989       .  S
O322       Cr328   2.025       .  S
O322        C323   1.271       .  A
C323        O324   1.263       .  A
C323       C3134   1.487       .  S
O324       Cr329   1.979       .  S
O325       Cr329   2.024       .  S
O325        C326   1.270       .  A
C326       C2810   1.474       .  S
Cr327       O330   1.762       .  S
Cr328       O330   1.774       .  S
Cr329       O330   1.769       .  S
O331       Cr349   1.975       .  S
O331        C339   1.260       .  A
O332       Cr349   1.990       .  S
O332        C333   1.262       .  A
C333        O334   1.265       .  A
C333       C2740   1.484       .  S
O334       Cr350   2.004       .  S
O335       Cr350   2.023       .  S
O335        C336   1.269       .  A
C336        O337   1.260       .  A
C336       C2938   1.481       .  S
O337       Cr351   1.973       .  S
O338       Cr351   2.006       .  S
O338        C339   1.266       .  A
C339       C2594   1.470       .  S
O340       Cr349   2.006       .  S
O340        C348   1.263       .  A
O341       Cr349   1.974       .  S
O341        C342   1.262       .  A
C342        O343   1.267       .  A
C342       C2830   1.471       .  S
O343       Cr350   2.013       .  S
O344       Cr350   1.991       .  S
O344        C345   1.261       .  A
C345        O346   1.264       .  A
C345       C2578   1.484       .  S
O346       Cr351   1.999       .  S
O347       Cr351   1.995       .  S
O347        C348   1.260       .  A
C348       C2614   1.483       .  S
Cr349       O352   1.767       .  S
Cr350       O352   1.778       .  S
Cr351       O352   1.770       .  S
O353       Cr371   1.986       .  S
O353        C361   1.264       .  A
O354       Cr371   2.000       .  S
O354        C355   1.262       .  A
C355        O356   1.262       .  A
C355       C2848   1.479       .  S
O356       Cr372   2.000       .  S
O357       Cr372   2.000       .  S
O357        C358   1.264       .  A
C358        O359   1.263       .  A
C358       C2524   1.477       .  S
O359       Cr373   1.984       .  S
O360       Cr373   2.022       .  S
O360        C361   1.270       .  A
C361       C2612   1.481       .  S
O362       Cr371   1.989       .  S
O362        C370   1.261       .  A
O363       Cr371   1.977       .  S
O363        C364   1.262       .  A
C364        O365   1.267       .  A
C364       C2666   1.473       .  S
O365       Cr372   2.014       .  S
O366       Cr372   1.990       .  S
O366        C367   1.263       .  A
C367        O368   1.268       .  A
C367       C2542   1.489       .  S
O368       Cr373   2.012       .  S
O369       Cr373   1.996       .  S
O369        C370   1.260       .  A
C370       C2558   1.474       .  S
Cr371       O374   1.768       .  S
Cr372       O374   1.773       .  S
Cr373       O374   1.772       .  S
O375       Cr393   1.988       .  S
O375        C383   1.263       .  A
O376       Cr393   1.997       .  S
O376        C377   1.263       .  A
C377        O378   1.261       .  A
C377       C2650   1.482       .  S
O378       Cr394   1.997       .  S
O379       Cr394   2.028       .  S
O379        C380   1.272       .  A
C380        O381   1.258       .  A
C380       C2504   1.473       .  S
O381       Cr395   1.962       .  S
O382       Cr395   2.004       .  S
O382        C383   1.264       .  A
C383       C2560   1.471       .  S
O384       Cr393   2.000       .  S
O384        C392   1.265       .  A
O385       Cr393   1.969       .  S
O385        C386   1.261       .  A
C386        O387   1.270       .  A
C386       C2722   1.476       .  S
O387       Cr394   2.028       .  S
O388       Cr394   1.995       .  S
O388        C389   1.261       .  A
C389        O390   1.262       .  A
C389       C2884   1.483       .  S
O390       Cr395   1.992       .  S
O391       Cr395   1.988       .  S
O391        C392   1.259       .  A
C392       C2596   1.470       .  S
Cr393       O396   1.762       .  S
Cr394       O396   1.773       .  S
Cr395       O396   1.765       .  S
O397       Cr415   1.996       .  S
O397        C405   1.264       .  A
O398       Cr415   1.971       .  S
O398        C399   1.258       .  A
C399        O400   1.269       .  A
C399       C2468   1.479       .  S
O400       Cr416   2.028       .  S
O401       Cr416   1.999       .  S
O401        C402   1.266       .  A
C402        O403   1.267       .  A
C402       C3404   1.481       .  S
O403       Cr417   2.005       .  S
O404       Cr417   1.984       .  S
O404        C405   1.259       .  A
C405       C2486   1.476       .  S
O406       Cr415   1.971       .  S
O406        C414   1.258       .  A
O407       Cr415   2.005       .  S
O407        C408   1.264       .  A
C408        O409   1.262       .  A
C408       C2432   1.483       .  S
O409       Cr416   1.999       .  S
O410       Cr416   2.009       .  S
O410        C411   1.266       .  A
C411        O412   1.263       .  A
C411       C2630   1.479       .  S
O412       Cr417   1.984       .  S
O413       Cr417   2.021       .  S
O413        C414   1.268       .  A
C414       C2450   1.474       .  S
Cr415       O418   1.765       .  S
Cr416       O418   1.770       .  S
Cr417       O418   1.772       .  S
O419       Cr437   1.998       .  S
O419        C427   1.262       .  A
O420       Cr437   1.958       .  S
O420        C421   1.256       .  A
C421        O422   1.271       .  A
C421       C2378   1.465       .  S
O422       Cr438   2.035       .  S
O423       Cr438   1.974       .  S
O423        C424   1.262       .  A
C424        O425   1.272       .  A
C424       C2704   1.480       .  S
O425       Cr439   2.022       .  S
O426       Cr439   1.988       .  S
O426        C427   1.259       .  A
C427       C2452   1.480       .  S
O428       Cr437   1.965       .  S
O428        C436   1.258       .  A
O429       Cr437   2.003       .  S
O429        C430   1.262       .  A
C430        O431   1.260       .  A
C430       C2396   1.478       .  S
O431       Cr438   1.995       .  S
O432       Cr438   2.013       .  S
O432        C433   1.265       .  A
C433        O434   1.259       .  A
C433       C2360   1.477       .  S
O434       Cr439   1.977       .  S
O435       Cr439   2.022       .  S
O435        C436   1.273       .  A
C436       C2414   1.473       .  S
Cr437       O440   1.764       .  S
Cr438       O440   1.772       .  S
Cr439       O440   1.764       .  S
O441       Cr459   1.979       .  S
O441        C449   1.261       .  A
O442       Cr459   2.000       .  S
O442        C443   1.264       .  A
C443        O444   1.261       .  A
C443       C2342   1.480       .  S
O444       Cr460   1.996       .  S
O445       Cr460   2.024       .  S
O445        C446   1.270       .  A
C446        O447   1.258       .  A
C446       C2308   1.477       .  S
O447       Cr461   1.969       .  S
O448       Cr461   2.001       .  S
O448        C449   1.263       .  A
C449       C2416   1.471       .  S
O450       Cr459   1.994       .  S
O450        C458   1.265       .  A
O451       Cr459   1.967       .  S
O451        C452   1.258       .  A
C452        O453   1.271       .  A
C452       C2324   1.482       .  S
O453       Cr460   2.035       .  S
O454       Cr460   2.001       .  S
O454        C455   1.266       .  A
C455        O456   1.263       .  A
C455       C3478   1.477       .  S
O456       Cr461   1.995       .  S
O457       Cr461   1.985       .  S
O457        C458   1.260       .  A
C458       C2488   1.475       .  S
Cr459       O462   1.765       .  S
Cr460       O462   1.774       .  S
Cr461       O462   1.769       .  S
O463       Cr481   1.968       .  S
O463        C471   1.257       .  A
O464       Cr481   2.004       .  S
O464        C465   1.264       .  A
C465        O466   1.257       .  A
C465       C2380   1.475       .  S
O466       Cr482   1.981       .  S
O467       Cr482   2.020       .  S
O467        C468   1.269       .  A
C468        O469   1.263       .  A
C468       C3262   1.487       .  S
O469       Cr483   1.983       .  S
O470       Cr483   2.018       .  S
O470        C471   1.269       .  A
C471       C2288   1.474       .  S
O472       Cr481   2.001       .  S
O472        C480   1.264       .  A
O473       Cr481   1.959       .  S
O473        C474   1.255       .  A
C474        O475   1.273       .  A
C474       C2434   1.478       .  S
O475       Cr482   2.047       .  S
O476       Cr482   1.981       .  S
O476        C477   1.264       .  A
C477        O478   1.266       .  A
C477       C2254   1.473       .  S
O478       Cr483   2.004       .  S
O479       Cr483   1.989       .  S
O479        C480   1.261       .  A
C480       C2270   1.480       .  S
Cr481       O484   1.765       .  S
Cr482       O484   1.774       .  S
Cr483       O484   1.769       .  S
O485       Cr503   1.992       .  S
O485        C493   1.264       .  A
O486       Cr503   1.965       .  S
O486        C487   1.258       .  A
C487        O488   1.271       .  A
C487       C2344   1.475       .  S
O488       Cr504   2.033       .  S
O489       Cr504   2.001       .  S
O489        C490   1.266       .  A
C490        O491   1.264       .  A
C490       C2576   1.478       .  S
O491       Cr505   1.994       .  S
O492       Cr505   1.998       .  S
O492        C493   1.262       .  A
C493       C2234   1.482       .  S
O494       Cr503   1.982       .  S
O494        C502   1.262       .  A
O495       Cr503   1.998       .  S
O495        C496   1.261       .  A
C496        O497   1.261       .  A
C496       C2398   1.478       .  S
O497       Cr504   1.998       .  S
O498       Cr504   2.013       .  S
O498        C499   1.266       .  A
C499        O500   1.262       .  A
C499       C3316   1.478       .  S
O500       Cr505   1.979       .  S
O501       Cr505   2.004       .  S
O501        C502   1.265       .  A
C502       C2290   1.473       .  S
Cr503       O506   1.766       .  S
Cr504       O506   1.775       .  S
Cr505       O506   1.766       .  S
O507       Cr525   1.974       .  S
O507        C515   1.257       .  A
O508       Cr525   1.995       .  S
O508        C509   1.264       .  A
C509        O510   1.263       .  A
C509       C2470   1.474       .  S
O510       Cr526   1.993       .  S
O511       Cr526   2.018       .  S
O511        C512   1.268       .  A
C512        O513   1.262       .  A
C512       C2218   1.480       .  S
O513       Cr527   1.974       .  S
O514       Cr527   2.021       .  S
O514        C515   1.267       .  A
C515       C2272   1.478       .  S
O516       Cr525   2.000       .  S
O516        C524   1.266       .  A
O517       Cr525   1.976       .  S
O517        C518   1.260       .  A
C518        O519   1.267       .  A
C518       C2326   1.480       .  S
O519       Cr526   2.018       .  S
O520       Cr526   1.992       .  S
O520        C521   1.264       .  A
C521        O522   1.264       .  A
C521       C2522   1.476       .  S
O522       Cr527   2.002       .  S
O523       Cr527   1.986       .  S
O523        C524   1.260       .  A
C524       C2236   1.478       .  S
Cr525       O528   1.763       .  S
Cr526       O528   1.777       .  S
Cr527       O528   1.772       .  S
O529       Cr547   2.008       .  S
O529        C537   1.266       .  A
O530       Cr547   1.976       .  S
O530        C531   1.260       .  A
C531        O532   1.268       .  A
C531       C2180   1.482       .  S
O532       Cr548   2.021       .  S
O533       Cr548   1.997       .  S
O533        C534   1.262       .  A
C534        O535   1.262       .  A
C534       C2126   1.479       .  S
O535       Cr549   1.989       .  S
O536       Cr549   1.983       .  S
O536        C537   1.259       .  A
C537       C2162   1.468       .  S
O538       Cr547   1.982       .  S
O538        C546   1.260       .  A
O539       Cr547   2.003       .  S
O539        C540   1.267       .  A
C540        O541   1.262       .  A
C540       C2200   1.479       .  S
O541       Cr548   1.989       .  S
O542       Cr548   2.018       .  S
O542        C543   1.269       .  A
C543        O544   1.263       .  A
C543       C3548   1.479       .  S
O544       Cr549   1.977       .  S
O545       Cr549   2.009       .  S
O545        C546   1.264       .  A
C546       C2144   1.474       .  S
Cr547       O550   1.763       .  S
Cr548       O550   1.770       .  S
Cr549       O550   1.766       .  S
O551       Cr569   2.005       .  S
O551        C559   1.266       .  A
O552       Cr569   1.971       .  S
O552        C553   1.260       .  A
C553        O554   1.268       .  A
C553       C2182   1.480       .  S
O554       Cr570   2.021       .  S
O555       Cr570   2.000       .  S
O555        C556   1.262       .  A
C556        O557   1.259       .  A
C556       C2054   1.476       .  S
O557       Cr571   1.993       .  S
O558       Cr571   1.982       .  S
O558        C559   1.259       .  A
C559       C2074   1.465       .  S
O560       Cr569   1.976       .  S
O560        C568   1.258       .  A
O561       Cr569   1.995       .  S
O561        C562   1.264       .  A
C562        O563   1.261       .  A
C562       C2090   1.476       .  S
O563       Cr570   1.986       .  S
O564       Cr570   2.027       .  S
O564        C565   1.274       .  A
C565        O566   1.259       .  A
C565       C3280   1.472       .  S
O566       Cr571   1.961       .  S
O567       Cr571   2.008       .  S
O567        C568   1.262       .  A
C568       C2108   1.471       .  S
Cr569       O572   1.763       .  S
Cr570       O572   1.774       .  S
Cr571       O572   1.769       .  S
O573       Cr591   1.978       .  S
O573        C581   1.261       .  A
O574       Cr591   2.014       .  S
O574        C575   1.267       .  A
C575        O576   1.261       .  A
C575       C2036   1.475       .  S
O576       Cr592   1.986       .  S
O577       Cr592   2.011       .  S
O577        C578   1.264       .  A
C578        O579   1.259       .  A
C578       C2002   1.477       .  S
O579       Cr593   1.976       .  S
O580       Cr593   2.016       .  S
O580        C581   1.267       .  A
C581       C2018   1.480       .  S
O582       Cr591   2.002       .  S
O582        C590   1.266       .  A
O583       Cr591   1.972       .  S
O583        C584   1.258       .  A
C584        O585   1.267       .  A
C584       C2092   1.477       .  S
O585       Cr592   2.024       .  S
O586       Cr592   1.982       .  S
O586        C587   1.263       .  A
C587        O588   1.271       .  A
C587       C1982   1.484       .  S
O588       Cr593   2.019       .  S
O589       Cr593   1.975       .  S
O589        C590   1.258       .  A
C590       C2164   1.472       .  S
Cr591       O594   1.767       .  S
Cr592       O594   1.773       .  S
Cr593       O594   1.772       .  S
O595       Cr613   2.002       .  S
O595        C603   1.263       .  A
O596       Cr613   1.959       .  S
O596        C597   1.256       .  A
C597        O598   1.272       .  A
C597       C1966   1.470       .  S
O598       Cr614   2.040       .  S
O599       Cr614   2.000       .  S
O599        C600   1.265       .  A
C600        O601   1.267       .  A
C600       C3458   1.484       .  S
O601       Cr615   2.006       .  S
O602       Cr615   1.991       .  S
O602        C603   1.259       .  A
C603       C2146   1.475       .  S
O604       Cr613   1.970       .  S
O604        C612   1.259       .  A
O605       Cr613   2.003       .  S
O605        C606   1.263       .  A
C606        O607   1.260       .  A
C606       C1946   1.481       .  S
O607       Cr614   1.996       .  S
O608       Cr614   2.019       .  S
O608        C609   1.269       .  A
C609        O610   1.264       .  A
C609       C1928   1.484       .  S
O610       Cr615   1.981       .  S
O611       Cr615   2.031       .  S
O611        C612   1.272       .  A
C612       C2020   1.477       .  S
Cr613       O616   1.763       .  S
Cr614       O616   1.773       .  S
Cr615       O616   1.764       .  S
O617       Cr635   1.980       .  S
O617        C625   1.262       .  A
O618       Cr635   2.010       .  S
O618        C619   1.267       .  A
C619        O620   1.259       .  A
C619       C1964   1.481       .  S
O620       Cr636   1.983       .  S
O621       Cr636   2.037       .  S
O621        C622   1.273       .  A
C622        O623   1.255       .  A
C622       C1894   1.475       .  S
O623       Cr637   1.952       .  S
O624       Cr637   2.013       .  S
O624        C625   1.266       .  A
C625       C1912   1.473       .  S
O626       Cr635   2.006       .  S
O626        C634   1.267       .  A
O627       Cr635   1.960       .  S
O627        C628   1.256       .  A
C628        O629   1.270       .  A
C628       C2198   1.468       .  S
O629       Cr636   2.035       .  S
O630       Cr636   1.976       .  S
O630        C631   1.257       .  A
C631        O632   1.266       .  A
C631       C1874   1.475       .  S
O632       Cr637   2.011       .  S
O633       Cr637   1.972       .  S
O633        C634   1.257       .  A
C634       C2072   1.469       .  S
Cr635       O638   1.761       .  S
Cr636       O638   1.774       .  S
Cr637       O638   1.769       .  S
O639       Cr657   1.964       .  S
O639        C647   1.258       .  A
O640       Cr657   2.005       .  S
O640        C641   1.262       .  A
C641        O642   1.258       .  A
C641       C2038   1.477       .  S
O642       Cr658   1.991       .  S
O643       Cr658   2.020       .  S
O643        C644   1.268       .  A
C644        O645   1.262       .  A
C644       C3244   1.484       .  S
O645       Cr659   1.978       .  S
O646       Cr659   2.027       .  S
O646        C647   1.273       .  A
C647       C2110   1.470       .  S
O648       Cr657   2.001       .  S
O648        C656   1.262       .  A
O649       Cr657   1.960       .  S
O649        C650   1.257       .  A
C650        O651   1.274       .  A
C650       C1948   1.470       .  S
O651       Cr658   2.042       .  S
O652       Cr658   1.974       .  S
O652        C653   1.260       .  A
C653        O654   1.269       .  A
C653       C1856   1.477       .  S
O654       Cr659   2.013       .  S
O655       Cr659   1.992       .  S
O655        C656   1.259       .  A
C656       C1910   1.475       .  S
Cr657       O660   1.761       .  S
Cr658       O660   1.768       .  S
Cr659       O660   1.765       .  S
O661       Cr679   2.007       .  S
O661        C669   1.264       .  A
O662       Cr679   1.971       .  S
O662        C663   1.260       .  A
C663        O664   1.269       .  A
C663       C1838   1.474       .  S
O664       Cr680   2.024       .  S
O665       Cr680   1.989       .  S
O665        C666   1.265       .  A
C666        O667   1.268       .  A
C666       C1766   1.479       .  S
O667       Cr681   2.009       .  S
O668       Cr681   1.982       .  S
O668        C669   1.257       .  A
C669       C1786   1.472       .  S
O670       Cr679   1.962       .  S
O670        C678   1.256       .  A
O671       Cr679   2.006       .  S
O671        C672   1.265       .  A
C672        O673   1.262       .  A
C672       C1820   1.479       .  S
O673       Cr680   1.994       .  S
O674       Cr680   2.012       .  S
O674        C675   1.265       .  A
C675        O676   1.259       .  A
C675       C2000   1.478       .  S
O676       Cr681   1.975       .  S
O677       Cr681   2.025       .  S
O677        C678   1.271       .  A
C678       C1802   1.472       .  S
Cr679       O682   1.764       .  S
Cr680       O682   1.770       .  S
Cr681       O682   1.764       .  S
O683       Cr701   1.993       .  S
O683        C691   1.263       .  A
O684       Cr701   1.958       .  S
O684        C685   1.256       .  A
C685        O686   1.273       .  A
C685       C1732   1.472       .  S
O686       Cr702   2.043       .  S
O687       Cr702   1.977       .  S
O687        C688   1.257       .  A
C688        O689   1.266       .  A
C688       C2362   1.478       .  S
O689       Cr703   2.011       .  S
O690       Cr703   1.994       .  S
O690        C691   1.260       .  A
C691       C1712   1.478       .  S
O692       Cr701   1.967       .  S
O692        C700   1.260       .  A
O693       Cr701   1.994       .  S
O693        C694   1.262       .  A
C694        O695   1.258       .  A
C694       C1748   1.474       .  S
O695       Cr702   1.984       .  S
O696       Cr702   2.042       .  S
O696        C697   1.275       .  A
C697        O698   1.259       .  A
C697       C1696   1.482       .  S
O698       Cr703   1.961       .  S
O699       Cr703   2.024       .  S
O699        C700   1.269       .  A
C700       C1784   1.474       .  S
Cr701       O704   1.760       .  S
Cr702       O704   1.778       .  S
Cr703       O704   1.775       .  S
O705       Cr723   1.977       .  S
O705        C713   1.261       .  A
O706       Cr723   2.011       .  S
O706        C707   1.266       .  A
C707        O708   1.258       .  A
C707       C1678   1.473       .  S
O708       Cr724   1.982       .  S
O709       Cr724   2.030       .  S
O709        C710   1.270       .  A
C710        O711   1.257       .  A
C710       C1930   1.479       .  S
O711       Cr725   1.967       .  S
O712       Cr725   2.008       .  S
O712        C713   1.266       .  A
C713       C1804   1.473       .  S
O714       Cr723   2.003       .  S
O714        C722   1.267       .  A
O715       Cr723   1.964       .  S
O715        C716   1.258       .  A
C716        O717   1.272       .  A
C716       C1658   1.484       .  S
O717       Cr724   2.040       .  S
O718       Cr724   1.982       .  S
O718        C719   1.261       .  A
C719        O720   1.268       .  A
C719       C2306   1.481       .  S
O720       Cr725   2.008       .  S
O721       Cr725   1.982       .  S
O721        C722   1.260       .  A
C722       C1714   1.479       .  S
Cr723       O726   1.764       .  S
Cr724       O726   1.774       .  S
Cr725       O726   1.768       .  S
O727       Cr745   1.993       .  S
O727        C735   1.261       .  A
O728       Cr745   1.954       .  S
O728        C729   1.256       .  A
C729        O730   1.274       .  A
C729       C1676   1.469       .  S
O730       Cr746   2.040       .  S
O731       Cr746   1.979       .  S
O731        C732   1.262       .  A
C732        O733   1.272       .  A
C732       C1604   1.487       .  S
O733       Cr747   2.027       .  S
O734       Cr747   1.983       .  S
O734        C735   1.259       .  A
C735       C1622   1.463       .  S
O736       Cr745   1.969       .  S
O736        C744   1.259       .  A
O737       Cr745   2.004       .  S
O737        C738   1.261       .  A
C738        O739   1.258       .  A
C738       C1822   1.476       .  S
O739       Cr746   1.991       .  S
O740       Cr746   2.020       .  S
O740        C741   1.267       .  A
C741        O742   1.259       .  A
C741       C2216   1.480       .  S
O742       Cr747   1.962       .  S
O743       Cr747   2.040       .  S
O743        C744   1.274       .  A
C744       C1640   1.479       .  S
Cr745       O748   1.761       .  S
Cr746       O748   1.771       .  S
Cr747       O748   1.766       .  S
O749       Cr767   1.977       .  S
O749        C757   1.260       .  A
O750       Cr767   1.996       .  S
O750        C751   1.265       .  A
C751        O752   1.261       .  A
C751       C1840   1.473       .  S
O752       Cr768   1.983       .  S
O753       Cr768   2.017       .  S
O753        C754   1.269       .  A
C754        O755   1.263       .  A
C754       C2252   1.477       .  S
O755       Cr769   1.971       .  S
O756       Cr769   2.022       .  S
O756        C757   1.267       .  A
C757       C1642   1.482       .  S
O758       Cr767   2.000       .  S
O758        C766   1.265       .  A
O759       Cr767   1.973       .  S
O759        C760   1.259       .  A
C760        O761   1.265       .  A
C760       C1750   1.474       .  S
O761       Cr768   2.016       .  S
O762       Cr768   1.991       .  S
O762        C763   1.261       .  A
C763        O764   1.264       .  A
C763       C2056   1.483       .  S
O764       Cr769   2.002       .  S
O765       Cr769   1.983       .  S
O765        C766   1.259       .  A
C766       C1586   1.470       .  S
Cr767       O770   1.765       .  S
Cr768       O770   1.776       .  S
Cr769       O770   1.769       .  S
O771       Cr789   1.981       .  S
O771        C779   1.260       .  A
O772       Cr789   2.002       .  S
O772        C773   1.266       .  A
C773        O774   1.262       .  A
C773       C1730   1.482       .  S
O774       Cr790   1.993       .  S
O775       Cr790   2.022       .  S
O775        C776   1.269       .  A
C776        O777   1.260       .  A
C776       C1876   1.474       .  S
O777       Cr791   1.972       .  S
O778       Cr791   2.000       .  S
O778        C779   1.262       .  A
C779       C1588   1.469       .  S
O780       Cr789   2.008       .  S
O780        C788   1.267       .  A
O781       Cr789   1.973       .  S
O781        C782   1.259       .  A
C782        O783   1.271       .  A
C782       C1660   1.481       .  S
O783       Cr790   2.028       .  S
O784       Cr790   1.994       .  S
O784        C785   1.263       .  A
C785        O786   1.261       .  A
C785       C1568   1.468       .  S
O786       Cr791   1.989       .  S
O787       Cr791   1.978       .  S
O787        C788   1.258       .  A
C788       C1624   1.471       .  S
Cr789       O792   1.763       .  S
Cr790       O792   1.771       .  S
Cr791       O792   1.764       .  S
O793       Cr811   2.006       .  S
O793        C801   1.268       .  A
O794       Cr811   1.969       .  S
O794        C795   1.257       .  A
C795        O796   1.268       .  A
C795       C1514   1.487       .  S
O796       Cr812   2.032       .  S
O797       Cr812   1.985       .  S
O797        C798   1.263       .  A
C798        O799   1.270       .  A
C798       C2902   1.485       .  S
O799       Cr813   2.018       .  S
O800       Cr813   1.974       .  S
O800        C801   1.258       .  A
C801       C1534   1.473       .  S
O802       Cr811   1.982       .  S
O802        C810   1.261       .  A
O803       Cr811   2.018       .  S
O803        C804   1.268       .  A
C804        O805   1.261       .  A
C804       C1498   1.479       .  S
O805       Cr812   1.984       .  S
O806       Cr812   2.018       .  S
O806        C807   1.267       .  A
C807        O808   1.261       .  A
C807       C1478   1.482       .  S
O808       Cr813   1.978       .  S
O809       Cr813   2.019       .  S
O809        C810   1.267       .  A
C810       C1552   1.482       .  S
Cr811       O814   1.767       .  S
Cr812       O814   1.773       .  S
Cr813       O814   1.774       .  S
O815       Cr833   2.008       .  S
O815        C823   1.262       .  A
O816       Cr833   1.971       .  S
O816        C817   1.261       .  A
C817        O818   1.265       .  A
C817       C1442   1.467       .  S
O818       Cr834   2.011       .  S
O819       Cr834   1.979       .  S
O819        C820   1.263       .  A
C820        O821   1.271       .  A
C820       C1406   1.481       .  S
O821       Cr835   2.014       .  S
O822       Cr835   1.995       .  S
O822        C823   1.259       .  A
C823       C1550   1.480       .  S
O824       Cr833   1.961       .  S
O824        C832   1.258       .  A
O825       Cr833   2.007       .  S
O825        C826   1.264       .  A
C826        O827   1.261       .  A
C826       C1426   1.478       .  S
O827       Cr834   1.996       .  S
O828       Cr834   1.997       .  S
O828        C829   1.261       .  A
C829        O830   1.263       .  A
C829       C1892   1.477       .  S
O830       Cr835   1.988       .  S
O831       Cr835   2.032       .  S
O831        C832   1.273       .  A
C832       C1462   1.474       .  S
Cr833       O836   1.765       .  S
Cr834       O836   1.771       .  S
Cr835       O836   1.768       .  S
O837       Cr855   1.987       .  S
O837        C845   1.261       .  A
O838       Cr855   1.991       .  S
O838        C839   1.263       .  A
C839        O840   1.261       .  A
C839       C1388   1.476       .  S
O840       Cr856   1.989       .  S
O841       Cr856   2.023       .  S
O841        C842   1.271       .  A
C842        O843   1.260       .  A
C842       C1858   1.476       .  S
O843       Cr857   1.968       .  S
O844       Cr857   2.003       .  S
O844        C845   1.262       .  A
C845       C1460   1.477       .  S
O846       Cr855   1.994       .  S
O846        C854   1.263       .  A
O847       Cr855   1.975       .  S
O847        C848   1.260       .  A
C848        O849   1.268       .  A
C848       C1370   1.482       .  S
O849       Cr856   2.020       .  S
O850       Cr856   1.991       .  S
O850        C851   1.260       .  A
C851        O852   1.262       .  A
C851       C2864   1.482       .  S
O852       Cr857   1.991       .  S
O853       Cr857   1.986       .  S
O853        C854   1.262       .  A
C854       C1532   1.468       .  S
Cr855       O858   1.768       .  S
Cr856       O858   1.782       .  S
Cr857       O858   1.775       .  S
O859       Cr877   1.964       .  S
O859        C867   1.256       .  A
O860       Cr877   2.005       .  S
O860        C861   1.265       .  A
C861        O862   1.265       .  A
C861       C1516   1.485       .  S
O862       Cr878   2.003       .  S
O863       Cr878   2.035       .  S
O863        C864   1.269       .  A
C864        O865   1.255       .  A
C864       C1984   1.479       .  S
O865       Cr879   1.964       .  S
O866       Cr879   2.015       .  S
O866        C867   1.269       .  A
C867       C1352   1.472       .  S
O868       Cr877   2.001       .  S
O868        C876   1.264       .  A
O869       Cr877   1.964       .  S
O869        C870   1.257       .  A
C870        O871   1.272       .  A
C870       C1372   1.481       .  S
O871       Cr878   2.040       .  S
O872       Cr878   1.998       .  S
O872        C873   1.267       .  A
C873        O874   1.269       .  A
C873       C1316   1.483       .  S
O874       Cr879   2.009       .  S
O875       Cr879   1.973       .  S
O875        C876   1.256       .  A
C876       C1334   1.471       .  S
Cr877       O880   1.765       .  S
Cr878       O880   1.775       .  S
Cr879       O880   1.766       .  S
O881       Cr899   2.002       .  S
O881        C889   1.263       .  A
O882       Cr899   1.970       .  S
O882        C883   1.260       .  A
C883        O884   1.272       .  A
C883       C1390   1.479       .  S
O884       Cr900   2.033       .  S
O885       Cr900   1.992       .  S
O885        C886   1.261       .  A
C886        O887   1.266       .  A
C886       C1282   1.487       .  S
O887       Cr901   2.009       .  S
O888       Cr901   1.984       .  S
O888        C889   1.257       .  A
C889       C1336   1.467       .  S
O890       Cr899   1.985       .  S
O890        C898   1.263       .  A
O891       Cr899   2.005       .  S
O891        C892   1.263       .  A
C892        O893   1.260       .  A
C892       C1424   1.479       .  S
O893       Cr900   1.993       .  S
O894       Cr900   2.029       .  S
O894        C895   1.272       .  A
C895        O896   1.258       .  A
C895       C3044   1.476       .  S
O896       Cr901   1.961       .  S
O897       Cr901   2.023       .  S
O897        C898   1.270       .  A
C898       C1298   1.481       .  S
Cr899       O902   1.766       .  S
Cr900       O902   1.772       .  S
Cr901       O902   1.766       .  S
O903       Cr921   1.993       .  S
O903        C911   1.262       .  A
O904       Cr921   1.973       .  S
O904        C905   1.262       .  A
C905        O906   1.264       .  A
C905       C1444   1.467       .  S
O906       Cr922   2.001       .  S
O907       Cr922   2.002       .  S
O907        C908   1.265       .  A
C908        O909   1.263       .  A
C908       C2992   1.476       .  S
O909       Cr923   1.994       .  S
O910       Cr923   2.007       .  S
O910        C911   1.265       .  A
C911       C1300   1.485       .  S
O912       Cr921   1.984       .  S
O912        C920   1.264       .  A
O913       Cr921   1.998       .  S
O913        C914   1.262       .  A
C914        O915   1.263       .  A
C914       C1496   1.481       .  S
O915       Cr922   2.004       .  S
O916       Cr922   1.994       .  S
O916        C917   1.261       .  A
C917        O918   1.263       .  A
C917       C2128   1.472       .  S
O918       Cr923   1.987       .  S
O919       Cr923   1.998       .  S
O919        C920   1.264       .  A
C920       C1354   1.471       .  S
Cr921       O924   1.768       .  S
Cr922       O924   1.774       .  S
Cr923       O924   1.765       .  S
O925       Cr943   1.961       .  S
O925        C933   1.257       .  A
O926       Cr943   2.009       .  S
O926        C927   1.266       .  A
C927        O928   1.264       .  A
C927       C1244   1.485       .  S
O928       Cr944   1.999       .  S
O929       Cr944   2.032       .  S
O929        C930   1.268       .  A
C930        O931   1.256       .  A
C930       C2540   1.481       .  S
O931       Cr945   1.968       .  S
O932       Cr945   2.024       .  S
O932        C933   1.270       .  A
C933       C1262   1.473       .  S
O934       Cr943   2.004       .  S
O934        C942   1.264       .  A
O935       Cr943   1.963       .  S
O935        C936   1.257       .  A
C936        O937   1.270       .  A
C936       C1210   1.479       .  S
O937       Cr944   2.035       .  S
O938       Cr944   1.986       .  S
O938        C939   1.264       .  A
C939        O940   1.271       .  A
C939       C1606   1.488       .  S
O940       Cr945   2.018       .  S
O941       Cr945   1.976       .  S
O941        C942   1.256       .  A
C942       C1228   1.475       .  S
Cr943       O946   1.766       .  S
Cr944       O946   1.776       .  S
Cr945       O946   1.770       .  S
O947       Cr965   2.002       .  S
O947        C955   1.265       .  A
O948       Cr965   1.956       .  S
O948        C949   1.257       .  A
C949        O950   1.275       .  A
C949       C1246   1.480       .  S
O950       Cr966   2.045       .  S
O951       Cr966   1.991       .  S
O951        C952   1.260       .  A
C952        O953   1.263       .  A
C952       C1318   1.487       .  S
O953       Cr967   2.004       .  S
O954       Cr967   1.988       .  S
O954        C955   1.260       .  A
C955       C1190   1.469       .  S
O956       Cr965   1.981       .  S
O956        C964   1.262       .  A
O957       Cr965   2.001       .  S
O957        C958   1.262       .  A
C958        O959   1.258       .  A
C958       C1172   1.477       .  S
O959       Cr966   1.991       .  S
O960       Cr966   2.033       .  S
O960        C961   1.274       .  A
C961        O962   1.262       .  A
C961       C1768   1.486       .  S
O962       Cr967   1.965       .  S
O963       Cr967   2.016       .  S
O963        C964   1.267       .  A
C964       C1154   1.475       .  S
Cr965       O968   1.766       .  S
Cr966       O968   1.771       .  S
Cr967       O968   1.768       .  S
O969       Cr987   1.974       .  S
O969        C977   1.257       .  A
O970       Cr987   1.996       .  S
O970        C971   1.266       .  A
C971        O972   1.262       .  A
C971       C1136   1.472       .  S
O972       Cr988   1.988       .  S
O973       Cr988   2.007       .  S
O973        C974   1.264       .  A
C974        O975   1.260       .  A
C974       C2776   1.477       .  S
O975       Cr989   1.980       .  S
O976       Cr989   2.017       .  S
O976        C977   1.266       .  A
C977       C1118   1.480       .  S
O978       Cr987   1.998       .  S
O978        C986   1.265       .  A
O979       Cr987   1.979       .  S
O979        C980   1.258       .  A
C980        O981   1.264       .  A
C980       C1208   1.477       .  S
O981       Cr988   2.011       .  S
O982       Cr988   1.993       .  S
O982        C983   1.266       .  A
C983        O984   1.269       .  A
C983       C1280   1.481       .  S
O984       Cr989   2.010       .  S
O985       Cr989   1.974       .  S
O985        C986   1.258       .  A
C986       C1192   1.471       .  S
Cr987       O990   1.770       .  S
Cr988       O990   1.781       .  S
Cr989       O990   1.774       .  S
O991      Cr1009   1.999       .  S
O991        C999   1.264       .  A
O992      Cr1009   1.969       .  S
O992        C993   1.260       .  A
C993        O994   1.270       .  A
C993       C1100   1.479       .  S
O994      Cr1010   2.026       .  S
O995      Cr1010   1.992       .  S
O995        C996   1.263       .  A
C996        O997   1.268       .  A
C996       C1694   1.491       .  S
O997      Cr1011   2.013       .  S
O998      Cr1011   1.992       .  S
O998        C999   1.260       .  A
C999       C1156   1.475       .  S
O1000     Cr1009   1.974       .  S
O1000      C1008   1.261       .  A
O1001     Cr1009   2.000       .  S
O1001      C1002   1.263       .  A
C1002      O1003   1.260       .  A
C1002      C1082   1.474       .  S
O1003     Cr1010   1.993       .  S
O1004     Cr1010   2.014       .  S
O1004      C1005   1.267       .  A
C1005      O1006   1.262       .  A
C1005      C2686   1.481       .  S
O1006     Cr1011   1.978       .  S
O1007     Cr1011   2.025       .  S
O1007      C1008   1.269       .  A
C1008      C1120   1.482       .  S
Cr1009     O1012   1.767       .  S
Cr1010     O1012   1.771       .  S
Cr1011     O1012   1.768       .  S
O1013     Cr1031   2.003       .  S
O1013      C1021   1.262       .  A
O1014     Cr1031   1.967       .  S
O1014      C1015   1.261       .  A
C1015      O1016   1.271       .  A
C1015      C1138   1.476       .  S
O1016     Cr1032   2.029       .  S
O1017     Cr1032   1.981       .  S
O1017      C1018   1.258       .  A
C1018      O1019   1.264       .  A
C1018      C1570   1.476       .  S
O1019     Cr1033   1.995       .  S
O1020     Cr1033   1.991       .  S
O1020      C1021   1.258       .  A
C1021      C1226   1.471       .  S
O1022     Cr1031   1.982       .  S
O1022      C1030   1.264       .  A
O1023     Cr1031   2.002       .  S
O1023      C1024   1.262       .  A
C1024      O1025   1.258       .  A
C1024      C1084   1.474       .  S
O1025     Cr1032   1.990       .  S
O1026     Cr1032   2.020       .  S
O1026      C1027   1.270       .  A
C1027      O1028   1.259       .  A
C1027      C1408   1.476       .  S
O1028     Cr1033   1.967       .  S
O1029     Cr1033   2.012       .  S
O1029      C1030   1.268       .  A
C1030      C1064   1.473       .  S
Cr1031     O1034   1.765       .  S
Cr1032     O1034   1.774       .  S
Cr1033     O1034   1.765       .  S
O1035     Cr1053   1.996       .  S
O1035      C1043   1.264       .  A
O1036     Cr1053   1.979       .  S
O1036      C1037   1.261       .  A
C1037      O1038   1.266       .  A
C1037      C1102   1.478       .  S
O1038     Cr1054   2.015       .  S
O1039     Cr1054   2.003       .  S
O1039      C1040   1.265       .  A
C1040      O1041   1.262       .  A
C1040      C1480   1.475       .  S
O1041     Cr1055   1.993       .  S
O1042     Cr1055   1.992       .  S
O1042      C1043   1.261       .  A
C1043      C1066   1.472       .  S
O1044     Cr1053   1.982       .  S
O1044      C1052   1.262       .  A
O1045     Cr1053   2.000       .  S
O1045      C1046   1.264       .  A
C1046      O1047   1.263       .  A
C1046      C1174   1.474       .  S
O1047     Cr1054   1.996       .  S
O1048     Cr1054   2.011       .  S
O1048      C1049   1.267       .  A
C1049      O1050   1.264       .  A
C1049      C2506   1.479       .  S
O1050     Cr1055   1.982       .  S
O1051     Cr1055   2.007       .  S
O1051      C1052   1.264       .  A
C1052      C1264   1.476       .  S
Cr1053     O1056   1.767       .  S
Cr1054     O1056   1.771       .  S
Cr1055     O1056   1.769       .  S
C1057      C1065   1.477       .  S
C1057      C1058   1.401       .  A
C1057      C1062   1.406       .  A
C1058      C1059   1.394       .  A
C1058      H1067   1.084       .  S
C1059      C1060   1.407       .  A
C1059      H1068   1.082       .  S
C1060      C1063   1.485       .  S
C1060      C1061   1.404       .  A
C1061      C1062   1.401       .  A
C1061      H1069   1.083       .  S
C1062      H1070   1.083       .  S
C1063      H1071   1.087       .  S
C1063      C1064   1.343       .  D
C1064      H1072   1.086       .  S
C1065      H1073   1.088       .  S
C1065      C1066   1.344       .  D
C1066      H1074   1.086       .  S
C1075      C1083   1.479       .  S
C1075      C1076   1.403       .  A
C1075      C1080   1.405       .  A
C1076      C1077   1.399       .  A
C1076      H1085   1.084       .  S
C1077      C1078   1.405       .  A
C1077      H1086   1.083       .  S
C1078      C1081   1.480       .  S
C1078      C1079   1.404       .  A
C1079      C1080   1.399       .  A
C1079      H1087   1.084       .  S
C1080      H1088   1.083       .  S
C1081      H1089   1.088       .  S
C1081      C1082   1.345       .  D
C1082      H1090   1.086       .  S
C1083      H1091   1.088       .  S
C1083      C1084   1.345       .  D
C1084      H1092   1.086       .  S
C1093      C1101   1.486       .  S
C1093      C1094   1.403       .  A
C1093      C1098   1.407       .  A
C1094      C1095   1.401       .  A
C1094      H1103   1.083       .  S
C1095      C1096   1.408       .  A
C1095      H1104   1.082       .  S
C1096      C1099   1.485       .  S
C1096      C1097   1.403       .  A
C1097      C1098   1.398       .  A
C1097      H1105   1.083       .  S
C1098      H1106   1.082       .  S
C1099      H1107   1.087       .  S
C1099      C1100   1.347       .  D
C1100      H1108   1.086       .  S
C1101      H1109   1.087       .  S
C1101      C1102   1.346       .  D
C1102      H1110   1.086       .  S
C1111      C1119   1.492       .  S
C1111      C1112   1.405       .  A
C1111      C1116   1.409       .  A
C1112      C1113   1.400       .  A
C1112      H1121   1.083       .  S
C1113      C1114   1.408       .  A
C1113      H1122   1.082       .  S
C1114      C1117   1.492       .  S
C1114      C1115   1.404       .  A
C1115      C1116   1.401       .  A
C1115      H1123   1.083       .  S
C1116      H1124   1.081       .  S
C1117      H1125   1.087       .  S
C1117      C1118   1.347       .  D
C1118      H1126   1.085       .  S
C1119      H1127   1.087       .  S
C1119      C1120   1.349       .  D
C1120      H1128   1.084       .  S
C1129      C1137   1.483       .  S
C1129      C1130   1.405       .  A
C1129      C1134   1.406       .  A
C1130      C1131   1.400       .  A
C1130      H1139   1.083       .  S
C1131      C1132   1.404       .  A
C1131      H1140   1.083       .  S
C1132      C1135   1.479       .  S
C1132      C1133   1.403       .  A
C1133      C1134   1.397       .  A
C1133      H1141   1.084       .  S
C1134      H1142   1.082       .  S
C1135      H1143   1.088       .  S
C1135      C1136   1.344       .  D
C1136      H1144   1.086       .  S
C1137      H1145   1.088       .  S
C1137      C1138   1.347       .  D
C1138      H1146   1.086       .  S
C1147      C1155   1.477       .  S
C1147      C1148   1.400       .  A
C1147      C1152   1.406       .  A
C1148      C1149   1.395       .  A
C1148      H1157   1.084       .  S
C1149      C1150   1.407       .  A
C1149      H1158   1.082       .  S
C1150      C1153   1.484       .  S
C1150      C1151   1.405       .  A
C1151      C1152   1.403       .  A
C1151      H1159   1.083       .  S
C1152      H1160   1.083       .  S
C1153      H1161   1.087       .  S
C1153      C1154   1.344       .  D
C1154      H1162   1.086       .  S
C1155      H1163   1.088       .  S
C1155      C1156   1.344       .  D
C1156      H1164   1.086       .  S
C1165      C1173   1.480       .  S
C1165      C1166   1.404       .  A
C1165      C1170   1.405       .  A
C1166      C1167   1.401       .  A
C1166      H1175   1.083       .  S
C1167      C1168   1.405       .  A
C1167      H1176   1.083       .  S
C1168      C1171   1.481       .  S
C1168      C1169   1.403       .  A
C1169      C1170   1.399       .  A
C1169      H1177   1.083       .  S
C1170      H1178   1.083       .  S
C1171      H1179   1.088       .  S
C1171      C1172   1.344       .  D
C1172      H1180   1.086       .  S
C1173      H1181   1.088       .  S
C1173      C1174   1.345       .  D
C1174      H1182   1.086       .  S
C1183      C1191   1.478       .  S
C1183      C1184   1.403       .  A
C1183      C1188   1.406       .  A
C1184      C1185   1.398       .  A
C1184      H1193   1.083       .  S
C1185      C1186   1.405       .  A
C1185      H1194   1.083       .  S
C1186      C1189   1.473       .  S
C1186      C1187   1.400       .  A
C1187      C1188   1.396       .  A
C1187      H1195   1.083       .  S
C1188      H1196   1.083       .  S
C1189      H1197   1.088       .  S
C1189      C1190   1.341       .  D
C1190      H1198   1.086       .  S
C1191      H1199   1.088       .  S
C1191      C1192   1.343       .  D
C1192      H1200   1.087       .  S
C1201      C1209   1.484       .  S
C1201      C1202   1.403       .  A
C1201      C1206   1.408       .  A
C1202      C1203   1.398       .  A
C1202      H1211   1.084       .  S
C1203      C1204   1.407       .  A
C1203      H1212   1.082       .  S
C1204      C1207   1.486       .  S
C1204      C1205   1.403       .  A
C1205      C1206   1.401       .  A
C1205      H1213   1.083       .  S
C1206      H1214   1.082       .  S
C1207      H1215   1.087       .  S
C1207      C1208   1.345       .  D
C1208      H1216   1.086       .  S
C1209      H1217   1.088       .  S
C1209      C1210   1.347       .  D
C1210      H1218   1.086       .  S
C1219      C1227   1.482       .  S
C1219      C1220   1.404       .  A
C1219      C1224   1.406       .  A
C1220      C1221   1.401       .  A
C1220      H1229   1.083       .  S
C1221      C1222   1.405       .  A
C1221      H1230   1.083       .  S
C1222      C1225   1.476       .  S
C1222      C1223   1.401       .  A
C1223      C1224   1.397       .  A
C1223      H1231   1.084       .  S
C1224      H1232   1.082       .  S
C1225      H1233   1.088       .  S
C1225      C1226   1.342       .  D
C1226      H1234   1.086       .  S
C1227      H1235   1.087       .  S
C1227      C1228   1.344       .  D
C1228      H1236   1.086       .  S
C1237      C1245   1.497       .  S
C1237      C1238   1.406       .  A
C1237      C1242   1.409       .  A
C1238      C1239   1.407       .  A
C1238      H1247   1.083       .  S
C1239      C1240   1.408       .  A
C1239      H1248   1.082       .  S
C1240      C1243   1.489       .  S
C1240      C1241   1.402       .  A
C1241      C1242   1.397       .  A
C1241      H1249   1.084       .  S
C1242      H1250   1.082       .  S
C1243      H1251   1.088       .  S
C1243      C1244   1.349       .  D
C1244      H1252   1.085       .  S
C1245      H1253   1.086       .  S
C1245      C1246   1.347       .  D
C1246      H1254   1.086       .  S
C1255      C1263   1.486       .  S
C1255      C1256   1.401       .  A
C1255      C1260   1.409       .  A
C1256      C1257   1.397       .  A
C1256      H1265   1.083       .  S
C1257      C1258   1.408       .  A
C1257      H1266   1.082       .  S
C1258      C1261   1.488       .  S
C1258      C1259   1.402       .  A
C1259      C1260   1.400       .  A
C1259      H1267   1.083       .  S
C1260      H1268   1.081       .  S
C1261      H1269   1.087       .  S
C1261      C1262   1.344       .  D
C1262      H1270   1.085       .  S
C1263      H1271   1.087       .  S
C1263      C1264   1.343       .  D
C1264      H1272   1.085       .  S
C1273      C1281   1.493       .  S
C1273      C1274   1.403   1_545  A
C1273      C1278   1.409   1_545  A
C1274      C1275   1.397       .  A
C1274      H1283   1.084   1_565  S
C1275      C1276   1.409       .  A
C1275      H1284   1.081       .  S
C1276      C1279   1.498       .  S
C1276      C1277   1.407       .  A
C1277      C1278   1.406       .  A
C1277      H1285   1.083       .  S
C1278      H1286   1.082   1_565  S
C1279      H1287   1.087       .  S
C1279      C1280   1.349       .  D
C1280      H1288   1.084       .  S
C1281      H1289   1.087       .  S
C1281      C1282   1.350       .  D
C1282      H1290   1.085       .  S
C1291      C1299   1.484       .  S
C1291      C1292   1.403       .  A
C1291      C1296   1.406       .  A
C1292      C1293   1.397       .  A
C1292      H1301   1.084       .  S
C1293      C1294   1.406       .  A
C1293      H1302   1.083       .  S
C1294      C1297   1.491       .  S
C1294      C1295   1.407       .  A
C1295      C1296   1.406       .  A
C1295      H1303   1.083       .  S
C1296      H1304   1.083       .  S
C1297      H1305   1.087       .  S
C1297      C1298   1.348       .  D
C1298      H1306   1.086       .  S
C1299      H1307   1.088       .  S
C1299      C1300   1.350       .  D
C1300      H1308   1.086       .  S
C1309      C1317   1.497       .  S
C1309      C1310   1.404       .  A
C1309      C1314   1.409       .  A
C1310      C1311   1.399       .  A
C1310      H1319   1.084       .  S
C1311      C1312   1.410   1_565  A
C1311      H1320   1.079   1_565  S
C1312      C1315   1.502       .  S
C1312      C1313   1.407   1_545  A
C1313      C1314   1.405       .  A
C1313      H1321   1.083   1_565  S
C1314      H1322   1.080       .  S
C1315      H1323   1.087       .  S
C1315      C1316   1.350       .  D
C1316      H1324   1.083       .  S
C1317      H1325   1.087       .  S
C1317      C1318   1.351       .  D
C1318      H1326   1.083       .  S
C1327      C1335   1.473       .  S
C1327      C1328   1.401       .  A
C1327      C1332   1.404       .  A
C1328      C1329   1.395       .  A
C1328      H1337   1.084       .  S
C1329      C1330   1.406       .  A
C1329      H1338   1.083       .  S
C1330      C1333   1.478       .  S
C1330      C1331   1.403       .  A
C1331      C1332   1.398       .  A
C1331      H1339   1.083       .  S
C1332      H1340   1.083       .  S
C1333      H1341   1.087       .  S
C1333      C1334   1.342       .  D
C1334      H1342   1.086       .  S
C1335      H1343   1.088       .  S
C1335      C1336   1.341       .  D
C1336      H1344   1.086       .  S
C1345      C1353   1.486       .  S
C1345      C1346   1.402       .  A
C1345      C1350   1.410       .  A
C1346      C1347   1.398       .  A
C1346      H1355   1.083       .  S
C1347      C1348   1.408       .  A
C1347      H1356   1.082       .  S
C1348      C1351   1.483       .  S
C1348      C1349   1.400       .  A
C1349      C1350   1.395       .  A
C1349      H1357   1.083       .  S
C1350      H1358   1.081       .  S
C1351      H1359   1.087       .  S
C1351      C1352   1.343       .  D
C1352      H1360   1.085       .  S
C1353      H1361   1.087       .  S
C1353      C1354   1.342       .  D
C1354      H1362   1.085       .  S
C1363      C1371   1.487       .  S
C1363      C1364   1.405       .  A
C1363      C1368   1.406       .  A
C1364      C1365   1.401       .  A
C1364      H1373   1.083       .  S
C1365      C1366   1.408       .  A
C1365      H1374   1.081       .  S
C1366      C1369   1.489       .  S
C1366      C1367   1.405       .  A
C1367      C1368   1.400       .  A
C1367      H1375   1.084       .  S
C1368      H1376   1.082       .  S
C1369      H1377   1.087       .  S
C1369      C1370   1.348       .  D
C1370      H1378   1.085       .  S
C1371      H1379   1.087       .  S
C1371      C1372   1.349       .  D
C1372      H1380   1.086       .  S
C1381      C1389   1.485       .  S
C1381      C1382   1.405       .  A
C1381      C1386   1.406       .  A
C1382      C1383   1.401       .  A
C1382      H1391   1.083       .  S
C1383      C1384   1.405       .  A
C1383      H1392   1.083       .  S
C1384      C1387   1.480       .  S
C1384      C1385   1.402       .  A
C1385      C1386   1.399       .  A
C1385      H1393   1.084       .  S
C1386      H1394   1.082       .  S
C1387      H1395   1.088       .  S
C1387      C1388   1.345       .  D
C1388      H1396   1.086       .  S
C1389      H1397   1.088       .  S
C1389      C1390   1.347       .  D
C1390      H1398   1.086       .  S
C1399      C1407   1.489       .  S
C1399      C1400   1.403       .  A
C1399      C1404   1.407       .  A
C1400      C1401   1.402       .  A
C1400      H1409   1.083       .  S
C1401      C1402   1.411       .  A
C1401      H1410   1.079       .  S
C1402      C1405   1.493       .  S
C1402      C1403   1.404       .  A
C1403      C1404   1.396       .  A
C1403      H1411   1.083       .  S
C1404      H1412   1.082       .  S
C1405      H1413   1.087       .  S
C1405      C1406   1.348       .  D
C1406      H1414   1.083       .  S
C1407      H1415   1.087       .  S
C1407      C1408   1.346       .  D
C1408      H1416   1.085       .  S
C1417      C1425   1.483       .  S
C1417      C1418   1.404       .  A
C1417      C1422   1.405       .  A
C1418      C1419   1.401       .  A
C1418      H1427   1.083       .  S
C1419      C1420   1.406       .  A
C1419      H1428   1.082       .  S
C1420      C1423   1.485       .  S
C1420      C1421   1.404       .  A
C1421      C1422   1.400       .  A
C1421      H1429   1.083       .  S
C1422      H1430   1.083       .  S
C1423      H1431   1.088       .  S
C1423      C1424   1.347       .  D
C1424      H1432   1.086       .  S
C1425      H1433   1.087       .  S
C1425      C1426   1.346       .  D
C1426      H1434   1.086       .  S
C1435      C1443   1.477       .  S
C1435      C1436   1.400       .  A
C1435      C1440   1.408       .  A
C1436      C1437   1.395       .  A
C1436      H1445   1.084       .  S
C1437      C1438   1.407       .  A
C1437      H1446   1.082       .  S
C1438      C1441   1.475       .  S
C1438      C1439   1.399       .  A
C1439      C1440   1.394       .  A
C1439      H1447   1.083       .  S
C1440      H1448   1.082       .  S
C1441      H1449   1.087       .  S
C1441      C1442   1.339       .  D
C1442      H1450   1.086       .  S
C1443      H1451   1.087       .  S
C1443      C1444   1.340       .  D
C1444      H1452   1.086       .  S
C1453      C1461   1.490       .  S
C1453      C1454   1.402       .  A
C1453      C1458   1.409       .  A
C1454      C1455   1.399       .  A
C1454      H1463   1.083       .  S
C1455      C1456   1.410       .  A
C1455      H1464   1.081       .  S
C1456      C1459   1.490       .  S
C1456      C1457   1.403       .  A
C1457      C1458   1.398       .  A
C1457      H1465   1.083       .  S
C1458      H1466   1.081       .  S
C1459      H1467   1.087       .  S
C1459      C1460   1.344       .  D
C1460      H1468   1.084       .  S
C1461      H1469   1.087       .  S
C1461      C1462   1.344       .  D
C1462      H1470   1.084       .  S
C1471      C1479   1.490       .  S
C1471      C1472   1.404       .  A
C1471      C1476   1.407       .  A
C1472      C1473   1.405       .  A
C1472      H1481   1.083       .  S
C1473      C1474   1.411       .  A
C1473      H1482   1.081       .  S
C1474      C1477   1.490       .  S
C1474      C1475   1.402       .  A
C1475      C1476   1.395       .  A
C1475      H1483   1.084       .  S
C1476      H1484   1.083       .  S
C1477      H1485   1.087       .  S
C1477      C1478   1.347       .  D
C1478      H1486   1.084       .  S
C1479      H1487   1.086       .  S
C1479      C1480   1.344       .  D
C1480      H1488   1.087       .  S
C1489      C1497   1.486       .  S
C1489      C1490   1.404       .  A
C1489      C1494   1.406       .  A
C1490      C1491   1.402       .  A
C1490      H1499   1.083       .  S
C1491      C1492   1.406       .  A
C1491      H1500   1.083       .  S
C1492      C1495   1.484       .  S
C1492      C1493   1.404       .  A
C1493      C1494   1.400       .  A
C1493      H1501   1.083       .  S
C1494      H1502   1.083       .  S
C1495      H1503   1.088       .  S
C1495      C1496   1.348       .  D
C1496      H1504   1.086       .  S
C1497      H1505   1.087       .  S
C1497      C1498   1.345       .  D
C1498      H1506   1.087       .  S
C1507      C1515   1.487       .  S
C1507      C1508   1.408       .  A
C1507      C1512   1.401       .  A
C1508      C1509   1.408       .  A
C1508      H1517   1.083       .  S
C1509      C1510   1.411       .  A
C1509      H1518   1.081       .  S
C1510      C1513   1.493       .  S
C1510      C1511   1.404       .  A
C1511      C1512   1.395       .  A
C1511      H1519   1.084       .  S
C1512      H1520   1.084       .  S
C1513      H1521   1.088       .  S
C1513      C1514   1.350       .  D
C1514      H1522   1.085       .  S
C1515      H1523   1.088       .  S
C1515      C1516   1.348       .  D
C1516      H1524   1.086       .  S
C1525      C1533   1.481       .  S
C1525      C1526   1.401       .  A
C1525      C1530   1.408       .  A
C1526      C1527   1.394       .  A
C1526      H1535   1.084       .  S
C1527      C1528   1.406       .  A
C1527      H1536   1.083       .  S
C1528      C1531   1.483       .  S
C1528      C1529   1.403       .  A
C1529      C1530   1.401       .  A
C1529      H1537   1.083       .  S
C1530      H1538   1.082       .  S
C1531      H1539   1.087       .  S
C1531      C1532   1.343       .  D
C1532      H1540   1.087       .  S
C1533      H1541   1.088       .  S
C1533      C1534   1.342       .  D
C1534      H1542   1.086       .  S
C1543      C1551   1.489       .  S
C1543      C1544   1.405       .  A
C1543      C1548   1.407       .  A
C1544      C1545   1.403       .  A
C1544      H1553   1.083       .  S
C1545      C1546   1.405       .  A
C1545      H1554   1.083       .  S
C1546      C1549   1.486       .  S
C1546      C1547   1.404       .  A
C1547      C1548   1.401       .  A
C1547      H1555   1.083       .  S
C1548      H1556   1.083       .  S
C1549      H1557   1.088       .  S
C1549      C1550   1.347       .  D
C1550      H1558   1.086       .  S
C1551      H1559   1.087       .  S
C1551      C1552   1.347       .  D
C1552      H1560   1.086       .  S
C1561      C1569   1.482       .  S
C1561      C1562   1.402       .  A
C1561      C1566   1.409       .  A
C1562      C1563   1.393       .  A
C1562      H1571   1.084       .  S
C1563      C1564   1.404       .  A
C1563      H1572   1.083       .  S
C1564      C1567   1.481       .  S
C1564      C1565   1.402       .  A
C1565      C1566   1.402       .  A
C1565      H1573   1.083       .  S
C1566      H1574   1.081       .  S
C1567      H1575   1.086       .  S
C1567      C1568   1.341       .  D
C1568      H1576   1.088       .  S
C1569      H1577   1.088       .  S
C1569      C1570   1.345       .  D
C1570      H1578   1.085       .  S
C1579      C1587   1.479       .  S
C1579      C1580   1.403       .  A
C1579      C1584   1.407       .  A
C1580      C1581   1.401       .  A
C1580      H1589   1.083       .  S
C1581      C1582   1.405       .  A
C1581      H1590   1.083       .  S
C1582      C1585   1.471       .  S
C1582      C1583   1.398       .  A
C1583      C1584   1.391       .  A
C1583      H1591   1.084       .  S
C1584      H1592   1.083       .  S
C1585      H1593   1.088       .  S
C1585      C1586   1.340       .  D
C1586      H1594   1.086       .  S
C1587      H1595   1.087       .  S
C1587      C1588   1.341       .  D
C1588      H1596   1.087       .  S
C1597      C1605   1.497       .  S
C1597      C1598   1.410       .  A
C1597      C1602   1.404       .  A
C1598      C1599   1.406       .  A
C1598      H1607   1.081       .  S
C1599      C1600   1.412       .  A
C1599      H1608   1.080       .  S
C1600      C1603   1.501       .  S
C1600      C1601   1.405       .  A
C1601      C1602   1.399       .  A
C1601      H1609   1.083       .  S
C1602      H1610   1.083       .  S
C1603      H1611   1.087       .  S
C1603      C1604   1.350       .  D
C1604      H1612   1.083       .  S
C1605      H1613   1.087       .  S
C1605      C1606   1.350       .  D
C1606      H1614   1.084       .  S
C1615      C1623   1.477       .  S
C1615      C1616   1.400       .  A
C1615      C1620   1.409       .  A
C1616      C1617   1.391       .  A
C1616      H1625   1.084       .  S
C1617      C1618   1.404       .  A
C1617      H1626   1.084       .  S
C1618      C1621   1.474       .  S
C1618      C1619   1.401       .  A
C1619      C1620   1.401       .  A
C1619      H1627   1.083       .  S
C1620      H1628   1.082       .  S
C1621      H1629   1.086       .  S
C1621      C1622   1.341       .  D
C1622      H1630   1.089       .  S
C1623      H1631   1.088       .  S
C1623      C1624   1.341       .  D
C1624      H1632   1.086       .  S
C1633      C1641   1.491       .  S
C1633      C1634   1.403       .  A
C1633      C1638   1.408       .  A
C1634      C1635   1.401       .  A
C1634      H1643   1.083       .  S
C1635      C1636   1.410       .  A
C1635      H1644   1.080       .  S
C1636      C1639   1.497       .  S
C1636      C1637   1.406       .  A
C1637      C1638   1.402       .  A
C1637      H1645   1.083       .  S
C1638      H1646   1.082       .  S
C1639      H1647   1.087       .  S
C1639      C1640   1.348       .  D
C1640      H1648   1.083       .  S
C1641      H1649   1.087       .  S
C1641      C1642   1.348       .  D
C1642      H1650   1.085       .  S
C1651      C1659   1.492       .  S
C1651      C1652   1.403       .  A
C1651      C1656   1.410       .  A
C1652      C1653   1.399       .  A
C1652      H1661   1.083       .  S
C1653      C1654   1.404       .  A
C1653      H1662   1.084       .  S
C1654      C1657   1.487       .  S
C1654      C1655   1.407       .  A
C1655      C1656   1.404       .  A
C1655      H1663   1.082       .  S
C1656      H1664   1.082       .  S
C1657      H1665   1.088       .  S
C1657      C1658   1.349       .  D
C1658      H1666   1.086       .  S
C1659      H1667   1.087       .  S
C1659      C1660   1.347       .  D
C1660      H1668   1.085       .  S
C1669      C1677   1.479       .  S
C1669      C1670   1.400       .  A
C1669      C1674   1.406       .  A
C1670      C1671   1.396       .  A
C1670      H1679   1.084       .  S
C1671      C1672   1.408       .  A
C1671      H1680   1.082       .  S
C1672      C1675   1.488       .  S
C1672      C1673   1.404       .  A
C1673      C1674   1.401       .  A
C1673      H1681   1.083       .  S
C1674      H1682   1.083       .  S
C1675      H1683   1.087       .  S
C1675      C1676   1.343       .  D
C1676      H1684   1.086       .  S
C1677      H1685   1.088       .  S
C1677      C1678   1.342       .  D
C1678      H1686   1.086       .  S
C1687      C1695   1.497       .  S
C1687      C1688   1.407       .  A
C1687      C1692   1.406       .  A
C1688      C1689   1.410   1_655  A
C1688      H1697   1.083       .  S
C1689      C1690   1.412       .  A
C1689      H1698   1.081       .  S
C1690      C1693   1.498       .  S
C1690      C1691   1.404       .  A
C1691      C1692   1.396   1_455  A
C1691      H1699   1.083       .  S
C1692      H1700   1.083       .  S
C1693      H1701   1.087       .  S
C1693      C1694   1.351       .  D
C1694      H1702   1.084       .  S
C1695      H1703   1.086       .  S
C1695      C1696   1.348       .  D
C1696      H1704   1.087       .  S
C1705      C1713   1.482       .  S
C1705      C1706   1.400       .  A
C1705      C1710   1.409       .  A
C1706      C1707   1.391       .  A
C1706      H1715   1.084       .  S
C1707      C1708   1.402       .  A
C1707      H1716   1.084       .  S
C1708      C1711   1.482       .  S
C1708      C1709   1.408       .  A
C1709      C1710   1.406       .  A
C1709      H1717   1.082       .  S
C1710      H1718   1.082       .  S
C1711      H1719   1.089       .  S
C1711      C1712   1.346       .  D
C1712      H1720   1.085       .  S
C1713      H1721   1.088       .  S
C1713      C1714   1.344       .  D
C1714      H1722   1.086       .  S
C1723      C1731   1.492       .  S
C1723      C1724   1.406       .  A
C1723      C1728   1.409       .  A
C1724      C1725   1.407       .  A
C1724      H1733   1.083       .  S
C1725      C1726   1.408       .  A
C1725      H1734   1.083       .  S
C1726      C1729   1.483       .  S
C1726      C1727   1.400       .  A
C1727      C1728   1.394       .  A
C1727      H1735   1.084       .  S
C1728      H1736   1.082       .  S
C1729      H1737   1.087       .  S
C1729      C1730   1.346       .  D
C1730      H1738   1.086       .  S
C1731      H1739   1.087       .  S
C1731      C1732   1.345       .  D
C1732      H1740   1.086       .  S
C1741      C1749   1.479       .  S
C1741      C1742   1.402       .  A
C1741      C1746   1.405       .  A
C1742      C1743   1.400       .  A
C1742      H1751   1.083       .  S
C1743      C1744   1.406       .  A
C1743      H1752   1.083       .  S
C1744      C1747   1.479       .  S
C1744      C1745   1.402       .  A
C1745      C1746   1.397       .  A
C1745      H1753   1.084       .  S
C1746      H1754   1.083       .  S
C1747      H1755   1.088       .  S
C1747      C1748   1.344       .  D
C1748      H1756   1.086       .  S
C1749      H1757   1.087       .  S
C1749      C1750   1.343       .  D
C1750      H1758   1.087       .  S
C1759      C1767   1.492       .  S
C1759      C1760   1.405       .  A
C1759      C1764   1.409       .  A
C1760      C1761   1.396   1_455  A
C1760      H1769   1.083       .  S
C1761      C1762   1.406       .  A
C1761      H1770   1.082       .  S
C1762      C1765   1.492       .  S
C1762      C1763   1.405       .  A
C1763      C1764   1.405   1_655  A
C1763      H1771   1.083       .  S
C1764      H1772   1.081       .  S
C1765      H1773   1.086       .  S
C1765      C1766   1.348       .  D
C1766      H1774   1.086       .  S
C1767      H1775   1.087       .  S
C1767      C1768   1.352       .  D
C1768      H1776   1.083       .  S
C1777      C1785   1.475       .  S
C1777      C1778   1.400       .  A
C1777      C1782   1.404       .  A
C1778      C1779   1.397       .  A
C1778      H1787   1.083       .  S
C1779      C1780   1.407       .  A
C1779      H1788   1.082       .  S
C1780      C1783   1.482       .  S
C1780      C1781   1.404       .  A
C1781      C1782   1.400       .  A
C1781      H1789   1.083       .  S
C1782      H1790   1.083       .  S
C1783      H1791   1.087       .  S
C1783      C1784   1.345       .  D
C1784      H1792   1.086       .  S
C1785      H1793   1.087       .  S
C1785      C1786   1.341       .  D
C1786      H1794   1.086       .  S
C1795      C1803   1.486       .  S
C1795      C1796   1.403       .  A
C1795      C1800   1.409       .  A
C1796      C1797   1.399       .  A
C1796      H1805   1.083       .  S
C1797      C1798   1.409       .  A
C1797      H1806   1.082       .  S
C1798      C1801   1.485       .  S
C1798      C1799   1.401       .  A
C1799      C1800   1.396       .  A
C1799      H1807   1.083       .  S
C1800      H1808   1.081       .  S
C1801      H1809   1.087       .  S
C1801      C1802   1.342       .  D
C1802      H1810   1.085       .  S
C1803      H1811   1.087       .  S
C1803      C1804   1.345       .  D
C1804      H1812   1.084       .  S
C1813      C1821   1.481       .  S
C1813      C1814   1.403       .  A
C1813      C1818   1.405       .  A
C1814      C1815   1.401       .  A
C1814      H1823   1.083       .  S
C1815      C1816   1.407       .  A
C1815      H1824   1.083       .  S
C1816      C1819   1.483       .  S
C1816      C1817   1.403       .  A
C1817      C1818   1.399       .  A
C1817      H1825   1.083       .  S
C1818      H1826   1.083       .  S
C1819      H1827   1.087       .  S
C1819      C1820   1.346       .  D
C1820      H1828   1.086       .  S
C1821      H1829   1.087       .  S
C1821      C1822   1.344       .  D
C1822      H1830   1.086       .  S
C1831      C1839   1.478       .  S
C1831      C1832   1.401       .  A
C1831      C1836   1.406       .  A
C1832      C1833   1.396       .  A
C1832      H1841   1.084       .  S
C1833      C1834   1.406       .  A
C1833      H1842   1.083       .  S
C1834      C1837   1.480       .  S
C1834      C1835   1.403       .  A
C1835      C1836   1.401       .  A
C1835      H1843   1.083       .  S
C1836      H1844   1.083       .  S
C1837      H1845   1.087       .  S
C1837      C1838   1.344       .  D
C1838      H1846   1.087       .  S
C1839      H1847   1.088       .  S
C1839      C1840   1.343       .  D
C1840      H1848   1.086       .  S
C1849      C1857   1.487       .  S
C1849      C1850   1.402       .  A
C1849      C1854   1.408       .  A
C1850      C1851   1.400       .  A
C1850      H1859   1.083       .  S
C1851      C1852   1.409       .  A
C1851      H1860   1.081       .  S
C1852      C1855   1.489       .  S
C1852      C1853   1.403       .  A
C1853      C1854   1.398       .  A
C1853      H1861   1.083       .  S
C1854      H1862   1.082       .  S
C1855      H1863   1.087       .  S
C1855      C1856   1.346       .  D
C1856      H1864   1.084       .  S
C1857      H1865   1.086       .  S
C1857      C1858   1.345       .  D
C1858      H1866   1.085       .  S
C1867      C1875   1.480       .  S
C1867      C1868   1.403       .  A
C1867      C1872   1.406       .  A
C1868      C1869   1.400       .  A
C1868      H1877   1.083       .  S
C1869      C1870   1.407       .  A
C1869      H1878   1.083       .  S
C1870      C1873   1.480       .  S
C1870      C1871   1.401       .  A
C1871      C1872   1.398       .  A
C1871      H1879   1.083       .  S
C1872      H1880   1.083       .  S
C1873      H1881   1.087       .  S
C1873      C1874   1.342       .  D
C1874      H1882   1.087       .  S
C1875      H1883   1.087       .  S
C1875      C1876   1.344       .  D
C1876      H1884   1.086       .  S
C1885      C1893   1.493       .  S
C1885      C1886   1.403       .  A
C1885      C1890   1.410       .  A
C1886      C1887   1.402       .  A
C1886      H1895   1.083       .  S
C1887      C1888   1.411       .  A
C1887      H1896   1.081       .  S
C1888      C1891   1.490       .  S
C1888      C1889   1.401       .  A
C1889      C1890   1.396       .  A
C1889      H1897   1.084       .  S
C1890      H1898   1.081       .  S
C1891      H1899   1.087       .  S
C1891      C1892   1.343       .  D
C1892      H1900   1.085       .  S
C1893      H1901   1.087       .  S
C1893      C1894   1.343       .  D
C1894      H1902   1.085       .  S
C1903      C1911   1.483       .  S
C1903      C1904   1.404       .  A
C1903      C1908   1.406       .  A
C1904      C1905   1.401       .  A
C1904      H1913   1.083       .  S
C1905      C1906   1.406       .  A
C1905      H1914   1.083       .  S
C1906      C1909   1.478       .  S
C1906      C1907   1.401       .  A
C1907      C1908   1.395       .  A
C1907      H1915   1.084       .  S
C1908      H1916   1.083       .  S
C1909      H1917   1.088       .  S
C1909      C1910   1.344       .  D
C1910      H1918   1.086       .  S
C1911      H1919   1.087       .  S
C1911      C1912   1.343       .  D
C1912      H1920   1.087       .  S
C1921      C1929   1.493       .  S
C1921      C1922   1.404       .  A
C1921      C1926   1.408       .  A
C1922      C1923   1.404   1_565  A
C1922      H1931   1.083       .  S
C1923      C1924   1.410       .  A
C1923      H1932   1.081       .  S
C1924      C1927   1.492       .  S
C1924      C1925   1.404       .  A
C1925      C1926   1.398   1_545  A
C1925      H1933   1.084       .  S
C1926      H1934   1.082       .  S
C1927      H1935   1.087       .  S
C1927      C1928   1.348       .  D
C1928      H1936   1.085       .  S
C1929      H1937   1.087       .  S
C1929      C1930   1.346       .  D
C1930      H1938   1.086       .  S
C1939      C1947   1.495       .  S
C1939      C1940   1.406       .  A
C1939      C1944   1.411       .  A
C1940      C1941   1.403       .  A
C1940      H1949   1.083       .  S
C1941      C1942   1.406       .  A
C1941      H1950   1.082       .  S
C1942      C1945   1.485       .  S
C1942      C1943   1.401       .  A
C1943      C1944   1.397       .  A
C1943      H1951   1.084       .  S
C1944      H1952   1.080       .  S
C1945      H1953   1.088       .  S
C1945      C1946   1.346       .  D
C1946      H1954   1.086       .  S
C1947      H1955   1.087       .  S
C1947      C1948   1.344       .  D
C1948      H1956   1.083       .  S
C1957      C1965   1.491       .  S
C1957      C1958   1.405       .  A
C1957      C1962   1.408       .  A
C1958      C1959   1.405       .  A
C1958      H1967   1.083       .  S
C1959      C1960   1.409       .  A
C1959      H1968   1.082       .  S
C1960      C1963   1.487       .  S
C1960      C1961   1.401       .  A
C1961      C1962   1.394       .  A
C1961      H1969   1.084       .  S
C1962      H1970   1.082       .  S
C1963      H1971   1.087       .  S
C1963      C1964   1.346       .  D
C1964      H1972   1.085       .  S
C1965      H1973   1.087       .  S
C1965      C1966   1.344       .  D
C1966      H1974   1.086       .  S
C1975      C1983   1.491       .  S
C1975      C1976   1.404       .  A
C1975      C1980   1.407       .  A
C1976      C1977   1.406   1_455  A
C1976      H1985   1.083       .  S
C1977      C1978   1.411       .  A
C1977      H1986   1.081       .  S
C1978      C1981   1.493       .  S
C1978      C1979   1.404       .  A
C1979      C1980   1.397   1_655  A
C1979      H1987   1.084       .  S
C1980      H1988   1.083       .  S
C1981      H1989   1.087       .  S
C1981      C1982   1.349       .  D
C1982      H1990   1.084       .  S
C1983      H1991   1.086       .  S
C1983      C1984   1.345       .  D
C1984      H1992   1.087       .  S
C1993      C2001   1.489       .  S
C1993      C1994   1.403   1_545  A
C1993      C1998   1.408       .  A
C1994      C1995   1.398       .  A
C1994      H2003   1.083   1_565  S
C1995      C1996   1.404       .  A
C1995      H2004   1.083       .  S
C1996      C1999   1.492       .  S
C1996      C1997   1.409       .  A
C1997      C1998   1.400   1_565  A
C1997      H2005   1.080       .  S
C1998      H2006   1.081       .  S
C1999      H2007   1.087       .  S
C1999      C2000   1.348       .  D
C2000      H2008   1.083       .  S
C2001      H2009   1.087       .  S
C2001      C2002   1.347       .  D
C2002      H2010   1.084       .  S
C2011      C2019   1.492       .  S
C2011      C2012   1.405       .  A
C2011      C2016   1.409       .  A
C2012      C2013   1.400       .  A
C2012      H2021   1.084       .  S
C2013      C2014   1.407       .  A
C2013      H2022   1.082       .  S
C2014      C2017   1.488       .  S
C2014      C2015   1.403       .  A
C2015      C2016   1.400       .  A
C2015      H2023   1.083       .  S
C2016      H2024   1.081       .  S
C2017      H2025   1.087       .  S
C2017      C2018   1.347       .  D
C2018      H2026   1.085       .  S
C2019      H2027   1.087       .  S
C2019      C2020   1.347       .  D
C2020      H2028   1.084       .  S
C2029      C2037   1.482       .  S
C2029      C2030   1.403       .  A
C2029      C2034   1.406       .  A
C2030      C2031   1.399       .  A
C2030      H2039   1.083       .  S
C2031      C2032   1.405       .  A
C2031      H2040   1.083       .  S
C2032      C2035   1.481       .  S
C2032      C2033   1.403       .  A
C2033      C2034   1.400       .  A
C2033      H2041   1.083       .  S
C2034      H2042   1.083       .  S
C2035      H2043   1.087       .  S
C2035      C2036   1.344       .  D
C2036      H2044   1.086       .  S
C2037      H2045   1.087       .  S
C2037      C2038   1.344       .  D
C2038      H2046   1.086       .  S
C2047      C2055   1.488       .  S
C2047      C2048   1.402       .  A
C2047      C2052   1.408       .  A
C2048      C2049   1.396       .  A
C2048      H2057   1.084       .  S
C2049      C2050   1.409       .  A
C2049      H2058   1.081       .  S
C2050      C2053   1.494       .  S
C2050      C2051   1.406       .  A
C2051      C2052   1.404       .  A
C2051      H2059   1.083       .  S
C2052      H2060   1.081       .  S
C2053      H2061   1.086       .  S
C2053      C2054   1.346       .  D
C2054      H2062   1.084       .  S
C2055      H2063   1.087       .  S
C2055      C2056   1.349       .  D
C2056      H2064   1.085       .  S
C2065      C2073   1.471       .  S
C2065      C2066   1.400       .  A
C2065      C2070   1.405       .  A
C2066      C2067   1.396       .  A
C2066      H2075   1.084       .  S
C2067      C2068   1.406       .  A
C2067      H2076   1.083       .  S
C2068      C2071   1.475       .  S
C2068      C2069   1.402       .  A
C2069      C2070   1.398       .  A
C2069      H2077   1.083       .  S
C2070      H2078   1.083       .  S
C2071      H2079   1.087       .  S
C2071      C2072   1.340       .  D
C2072      H2080   1.087       .  S
C2073      H2081   1.088       .  S
C2073      C2074   1.339       .  D
C2074      H2082   1.086       .  S
C2083      C2091   1.483       .  S
C2083      C2084   1.404       .  A
C2083      C2088   1.407       .  A
C2084      C2085   1.401       .  A
C2084      H2093   1.083       .  S
C2085      C2086   1.405       .  A
C2085      H2094   1.083       .  S
C2086      C2089   1.479       .  S
C2086      C2087   1.402       .  A
C2087      C2088   1.398       .  A
C2087      H2095   1.083       .  S
C2088      H2096   1.083       .  S
C2089      H2097   1.088       .  S
C2089      C2090   1.344       .  D
C2090      H2098   1.086       .  S
C2091      H2099   1.087       .  S
C2091      C2092   1.345       .  D
C2092      H2100   1.086       .  S
C2101      C2109   1.483       .  S
C2101      C2102   1.402       .  A
C2101      C2106   1.408       .  A
C2102      C2103   1.396       .  A
C2102      H2111   1.083       .  S
C2103      C2104   1.407       .  A
C2103      H2112   1.082       .  S
C2104      C2107   1.481       .  S
C2104      C2105   1.402       .  A
C2105      C2106   1.397       .  A
C2105      H2113   1.083       .  S
C2106      H2114   1.082       .  S
C2107      H2115   1.087       .  S
C2107      C2108   1.343       .  D
C2108      H2116   1.086       .  S
C2109      H2117   1.087       .  S
C2109      C2110   1.343       .  D
C2110      H2118   1.085       .  S
C2119      C2127   1.483       .  S
C2119      C2120   1.399       .  A
C2119      C2124   1.410       .  A
C2120      C2121   1.393   1_455  A
C2120      H2129   1.084       .  S
C2121      C2122   1.404       .  A
C2121      H2130   1.084       .  S
C2122      C2125   1.481       .  S
C2122      C2123   1.405       .  A
C2123      C2124   1.401   1_655  A
C2123      H2131   1.082       .  S
C2124      H2132   1.082       .  S
C2125      H2133   1.088       .  S
C2125      C2126   1.349       .  D
C2126      H2134   1.085       .  S
C2127      H2135   1.087       .  S
C2127      C2128   1.341       .  D
C2128      H2136   1.085       .  S
C2137      C2145   1.478       .  S
C2137      C2138   1.401       .  A
C2137      C2142   1.406       .  A
C2138      C2139   1.396       .  A
C2138      H2147   1.083       .  S
C2139      C2140   1.406       .  A
C2139      H2148   1.083       .  S
C2140      C2143   1.482       .  S
C2140      C2141   1.403       .  A
C2141      C2142   1.401       .  A
C2141      H2149   1.083       .  S
C2142      H2150   1.083       .  S
C2143      H2151   1.087       .  S
C2143      C2144   1.343       .  D
C2144      H2152   1.087       .  S
C2145      H2153   1.088       .  S
C2145      C2146   1.344       .  D
C2146      H2154   1.086       .  S
C2155      C2163   1.478       .  S
C2155      C2156   1.403       .  A
C2155      C2160   1.406       .  A
C2156      C2157   1.398       .  A
C2156      H2165   1.083       .  S
C2157      C2158   1.404       .  A
C2157      H2166   1.083       .  S
C2158      C2161   1.474       .  S
C2158      C2159   1.401       .  A
C2159      C2160   1.397       .  A
C2159      H2167   1.083       .  S
C2160      H2168   1.083       .  S
C2161      H2169   1.088       .  S
C2161      C2162   1.340       .  D
C2162      H2170   1.086       .  S
C2163      H2171   1.087       .  S
C2163      C2164   1.342       .  D
C2164      H2172   1.086       .  S
C2173      C2181   1.485       .  S
C2173      C2174   1.403       .  A
C2173      C2178   1.406       .  A
C2174      C2175   1.400       .  A
C2174      H2183   1.083       .  S
C2175      C2176   1.408       .  A
C2175      H2184   1.081       .  S
C2176      C2179   1.491       .  S
C2176      C2177   1.405       .  A
C2177      C2178   1.400       .  A
C2177      H2185   1.083       .  S
C2178      H2186   1.082       .  S
C2179      H2187   1.087       .  S
C2179      C2180   1.349       .  D
C2180      H2188   1.085       .  S
C2181      H2189   1.087       .  S
C2181      C2182   1.347       .  D
C2182      H2190   1.086       .  S
C2191      C2199   1.480       .  S
C2191      C2192   1.399       .  A
C2191      C2196   1.407       .  A
C2192      C2193   1.394       .  A
C2192      H2201   1.084       .  S
C2193      C2194   1.409       .  A
C2193      H2202   1.082       .  S
C2194      C2197   1.490       .  S
C2194      C2195   1.406       .  A
C2195      C2196   1.405       .  A
C2195      H2203   1.083       .  S
C2196      H2204   1.083       .  S
C2197      H2205   1.087       .  S
C2197      C2198   1.343       .  D
C2198      H2206   1.085       .  S
C2199      H2207   1.088       .  S
C2199      C2200   1.344       .  D
C2200      H2208   1.086       .  S
C2209      C2217   1.488       .  S
C2209      C2210   1.401       .  A
C2209      C2214   1.411       .  A
C2210      C2211   1.393       .  A
C2210      H2219   1.084       .  S
C2211      C2212   1.403       .  A
C2211      H2220   1.084       .  S
C2212      C2215   1.486       .  S
C2212      C2213   1.408       .  A
C2213      C2214   1.404       .  A
C2213      H2221   1.081       .  S
C2214      H2222   1.080       .  S
C2215      H2223   1.087       .  S
C2215      C2216   1.348       .  D
C2216      H2224   1.084       .  S
C2217      H2225   1.087       .  S
C2217      C2218   1.346       .  D
C2218      H2226   1.084       .  S
C2227      C2235   1.479       .  S
C2227      C2228   1.399       .  A
C2227      C2232   1.408       .  A
C2228      C2229   1.390       .  A
C2228      H2237   1.084       .  S
C2229      C2230   1.402       .  A
C2229      H2238   1.084       .  S
C2230      C2233   1.483       .  S
C2230      C2231   1.409       .  A
C2231      C2232   1.407       .  A
C2231      H2239   1.082       .  S
C2232      H2240   1.082       .  S
C2233      H2241   1.088       .  S
C2233      C2234   1.348       .  D
C2234      H2242   1.085       .  S
C2235      H2243   1.088       .  S
C2235      C2236   1.344       .  D
C2236      H2244   1.086       .  S
C2245      C2253   1.486       .  S
C2245      C2246   1.403       .  A
C2245      C2250   1.406       .  A
C2246      C2247   1.400       .  A
C2246      H2255   1.083       .  S
C2247      C2248   1.410       .  A
C2247      H2256   1.080       .  S
C2248      C2251   1.488       .  S
C2248      C2249   1.403       .  A
C2249      C2250   1.395       .  A
C2249      H2257   1.084       .  S
C2250      H2258   1.082       .  S
C2251      H2259   1.087       .  S
C2251      C2252   1.346       .  D
C2252      H2260   1.083       .  S
C2253      H2261   1.087       .  S
C2253      C2254   1.344       .  D
C2254      H2262   1.085       .  S
C2263      C2271   1.496       .  S
C2263      C2264   1.408       .  A
C2263      C2268   1.410       .  A
C2264      C2265   1.402       .  A
C2264      H2273   1.083       .  S
C2265      C2266   1.405       .  A
C2265      H2274   1.082       .  S
C2266      C2269   1.486       .  S
C2266      C2267   1.402       .  A
C2267      C2268   1.397       .  A
C2267      H2275   1.084       .  S
C2268      H2276   1.079       .  S
C2269      H2277   1.088       .  S
C2269      C2270   1.348       .  D
C2270      H2278   1.085       .  S
C2271      H2279   1.087       .  S
C2271      C2272   1.349       .  D
C2272      H2280   1.082       .  S
C2281      C2289   1.487       .  S
C2281      C2282   1.403       .  A
C2281      C2286   1.409       .  A
C2282      C2283   1.400       .  A
C2282      H2291   1.083       .  S
C2283      C2284   1.409       .  A
C2283      H2292   1.081       .  S
C2284      C2287   1.487       .  S
C2284      C2285   1.401       .  A
C2285      C2286   1.395       .  A
C2285      H2293   1.084       .  S
C2286      H2294   1.081       .  S
C2287      H2295   1.087       .  S
C2287      C2288   1.345       .  D
C2288      H2296   1.084       .  S
C2289      H2297   1.087       .  S
C2289      C2290   1.344       .  D
C2290      H2298   1.085       .  S
C2299      C2307   1.490       .  S
C2299      C2300   1.405       .  A
C2299      C2304   1.407       .  A
C2300      C2301   1.404   1_556  A
C2300      H2309   1.083       .  S
C2301      C2302   1.410       .  A
C2301      H2310   1.080       .  S
C2302      C2305   1.491       .  S
C2302      C2303   1.403       .  A
C2303      C2304   1.396   1_554  A
C2303      H2311   1.084       .  S
C2304      H2312   1.082       .  S
C2305      H2313   1.087       .  S
C2305      C2306   1.348       .  D
C2306      H2314   1.084       .  S
C2307      H2315   1.087       .  S
C2307      C2308   1.346       .  D
C2308      H2316   1.085       .  S
C2317      C2325   1.488       .  S
C2317      C2318   1.405       .  A
C2317      C2322   1.407       .  A
C2318      C2319   1.402       .  A
C2318      H2327   1.083       .  S
C2319      C2320   1.407       .  A
C2319      H2328   1.082       .  S
C2320      C2323   1.486       .  S
C2320      C2321   1.403       .  A
C2321      C2322   1.399       .  A
C2321      H2329   1.083       .  S
C2322      H2330   1.082       .  S
C2323      H2331   1.088       .  S
C2323      C2324   1.348       .  D
C2324      H2332   1.086       .  S
C2325      H2333   1.087       .  S
C2325      C2326   1.347       .  D
C2326      H2334   1.086       .  S
C2335      C2343   1.492       .  S
C2335      C2336   1.407       .  A
C2335      C2340   1.407       .  A
C2336      C2337   1.405       .  A
C2336      H2345   1.083       .  S
C2337      C2338   1.407       .  A
C2337      H2346   1.083       .  S
C2338      C2341   1.483       .  S
C2338      C2339   1.401       .  A
C2339      C2340   1.395       .  A
C2339      H2347   1.084       .  S
C2340      H2348   1.082       .  S
C2341      H2349   1.088       .  S
C2341      C2342   1.346       .  D
C2342      H2350   1.086       .  S
C2343      H2351   1.087       .  S
C2343      C2344   1.348       .  D
C2344      H2352   1.085       .  S
C2353      C2361   1.484       .  S
C2353      C2354   1.402       .  A
C2353      C2358   1.407       .  A
C2354      C2355   1.398   1_554  A
C2354      H2363   1.083       .  S
C2355      C2356   1.406       .  A
C2355      H2364   1.083       .  S
C2356      C2359   1.482       .  S
C2356      C2357   1.403       .  A
C2357      C2358   1.401   1_556  A
C2357      H2365   1.083       .  S
C2358      H2366   1.083       .  S
C2359      H2367   1.087       .  S
C2359      C2360   1.345       .  D
C2360      H2368   1.087       .  S
C2361      H2369   1.087       .  S
C2361      C2362   1.344       .  D
C2362      H2370   1.087       .  S
C2371      C2379   1.481       .  S
C2371      C2372   1.399       .  A
C2371      C2376   1.408       .  A
C2372      C2373   1.393       .  A
C2372      H2381   1.084       .  S
C2373      C2374   1.409       .  A
C2373      H2382   1.081       .  S
C2374      C2377   1.487       .  S
C2374      C2375   1.403       .  A
C2375      C2376   1.402       .  A
C2375      H2383   1.083       .  S
C2376      H2384   1.082       .  S
C2377      H2385   1.087       .  S
C2377      C2378   1.341       .  D
C2378      H2386   1.085       .  S
C2379      H2387   1.087       .  S
C2379      C2380   1.342       .  D
C2380      H2388   1.086       .  S
C2389      C2397   1.481       .  S
C2389      C2390   1.403       .  A
C2389      C2394   1.406       .  A
C2390      C2391   1.400       .  A
C2390      H2399   1.083       .  S
C2391      C2392   1.406       .  A
C2391      H2400   1.083       .  S
C2392      C2395   1.481       .  S
C2392      C2393   1.403       .  A
C2393      C2394   1.401       .  A
C2393      H2401   1.083       .  S
C2394      H2402   1.083       .  S
C2395      H2403   1.087       .  S
C2395      C2396   1.345       .  D
C2396      H2404   1.087       .  S
C2397      H2405   1.087       .  S
C2397      C2398   1.346       .  D
C2398      H2406   1.086       .  S
C2407      C2415   1.487       .  S
C2407      C2408   1.404       .  A
C2407      C2412   1.409       .  A
C2408      C2409   1.400       .  A
C2408      H2417   1.083       .  S
C2409      C2410   1.408       .  A
C2409      H2418   1.082       .  S
C2410      C2413   1.483       .  S
C2410      C2411   1.400       .  A
C2411      C2412   1.393       .  A
C2411      H2419   1.084       .  S
C2412      H2420   1.080       .  S
C2413      H2421   1.087       .  S
C2413      C2414   1.342       .  D
C2414      H2422   1.085       .  S
C2415      H2423   1.087       .  S
C2415      C2416   1.345       .  D
C2416      H2424   1.083       .  S
C2425      C2433   1.497       .  S
C2425      C2426   1.407       .  A
C2425      C2430   1.409       .  A
C2426      C2427   1.405       .  A
C2426      H2435   1.083       .  S
C2427      C2428   1.407       .  A
C2427      H2436   1.083       .  S
C2428      C2431   1.486       .  S
C2428      C2429   1.402       .  A
C2429      C2430   1.399       .  A
C2429      H2437   1.083       .  S
C2430      H2438   1.082       .  S
C2431      H2439   1.087       .  S
C2431      C2432   1.347       .  D
C2432      H2440   1.086       .  S
C2433      H2441   1.087       .  S
C2433      C2434   1.347       .  D
C2434      H2442   1.085       .  S
C2443      C2451   1.485       .  S
C2443      C2444   1.402       .  A
C2443      C2448   1.408       .  A
C2444      C2445   1.394       .  A
C2444      H2453   1.084       .  S
C2445      C2446   1.407       .  A
C2445      H2454   1.081       .  S
C2446      C2449   1.489       .  S
C2446      C2447   1.405       .  A
C2447      C2448   1.403       .  A
C2447      H2455   1.083       .  S
C2448      H2456   1.081       .  S
C2449      H2457   1.087       .  S
C2449      C2450   1.346       .  D
C2450      H2458   1.085       .  S
C2451      H2459   1.087       .  S
C2451      C2452   1.347       .  D
C2452      H2460   1.085       .  S
C2461      C2469   1.480       .  S
C2461      C2462   1.402       .  A
C2461      C2466   1.405       .  A
C2462      C2463   1.398       .  A
C2462      H2471   1.083       .  S
C2463      C2464   1.406       .  A
C2463      H2472   1.082       .  S
C2464      C2467   1.487       .  S
C2464      C2465   1.406       .  A
C2465      C2466   1.403       .  A
C2465      H2473   1.083       .  S
C2466      H2474   1.083       .  S
C2467      H2475   1.087       .  S
C2467      C2468   1.348       .  D
C2468      H2476   1.086       .  S
C2469      H2477   1.088       .  S
C2469      C2470   1.344       .  D
C2470      H2478   1.086       .  S
C2479      C2487   1.482       .  S
C2479      C2480   1.402       .  A
C2479      C2484   1.408       .  A
C2480      C2481   1.393       .  A
C2480      H2489   1.084       .  S
C2481      C2482   1.402       .  A
C2481      H2490   1.084       .  S
C2482      C2485   1.482       .  S
C2482      C2483   1.407       .  A
C2483      C2484   1.402       .  A
C2483      H2491   1.082       .  S
C2484      H2492   1.081       .  S
C2485      H2493   1.088       .  S
C2485      C2486   1.345       .  D
C2486      H2494   1.085       .  S
C2487      H2495   1.088       .  S
C2487      C2488   1.345       .  D
C2488      H2496   1.085       .  S
C2497      C2505   1.489       .  S
C2497      C2498   1.401       .  A
C2497      C2502   1.410       .  A
C2498      C2499   1.395       .  A
C2498      H2507   1.083       .  S
C2499      C2500   1.408       .  A
C2499      H2508   1.081       .  S
C2500      C2503   1.490       .  S
C2500      C2501   1.403       .  A
C2501      C2502   1.402       .  A
C2501      H2509   1.083       .  S
C2502      H2510   1.081       .  S
C2503      H2511   1.087       .  S
C2503      C2504   1.345       .  D
C2504      H2512   1.085       .  S
C2505      H2513   1.087       .  S
C2505      C2506   1.345       .  D
C2506      H2514   1.084       .  S
C2515      C2523   1.488       .  S
C2515      C2516   1.402       .  A
C2515      C2520   1.409       .  A
C2516      C2517   1.398       .  A
C2516      H2525   1.083       .  S
C2517      C2518   1.410       .  A
C2517      H2526   1.081       .  S
C2518      C2521   1.491       .  S
C2518      C2519   1.403       .  A
C2519      C2520   1.400       .  A
C2519      H2527   1.083       .  S
C2520      H2528   1.082       .  S
C2521      H2529   1.087       .  S
C2521      C2522   1.345       .  D
C2522      H2530   1.085       .  S
C2523      H2531   1.087       .  S
C2523      C2524   1.345       .  D
C2524      H2532   1.085       .  S
C2533      C2541   1.495       .  S
C2533      C2534   1.403       .  A
C2533      C2538   1.410       .  A
C2534      C2535   1.397       .  A
C2534      H2543   1.083       .  S
C2535      C2536   1.407       .  A
C2535      H2544   1.082       .  S
C2536      C2539   1.496       .  S
C2536      C2537   1.406       .  A
C2537      C2538   1.408       .  A
C2537      H2545   1.083       .  S
C2538      H2546   1.081       .  S
C2539      H2547   1.086       .  S
C2539      C2540   1.348       .  D
C2540      H2548   1.086       .  S
C2541      H2549   1.087       .  S
C2541      C2542   1.350       .  D
C2542      H2550   1.085       .  S
C2551      C2559   1.484       .  S
C2551      C2552   1.404       .  A
C2551      C2556   1.406       .  A
C2552      C2553   1.402       .  A
C2552      H2561   1.083       .  S
C2553      C2554   1.406       .  A
C2553      H2562   1.082       .  S
C2554      C2557   1.478       .  S
C2554      C2555   1.402       .  A
C2555      C2556   1.393       .  A
C2555      H2563   1.084       .  S
C2556      H2564   1.082       .  S
C2557      H2565   1.089       .  S
C2557      C2558   1.346       .  D
C2558      H2566   1.085       .  S
C2559      H2567   1.087       .  S
C2559      C2560   1.342       .  D
C2560      H2568   1.086       .  S
C2569      C2577   1.492       .  S
C2569      C2570   1.404       .  A
C2569      C2574   1.410       .  A
C2570      C2571   1.396       .  A
C2570      H2579   1.084       .  S
C2571      C2572   1.408       .  A
C2571      H2580   1.082       .  S
C2572      C2575   1.494       .  S
C2572      C2573   1.405       .  A
C2573      C2574   1.406       .  A
C2573      H2581   1.083       .  S
C2574      H2582   1.081       .  S
C2575      H2583   1.086       .  S
C2575      C2576   1.346       .  D
C2576      H2584   1.086       .  S
C2577      H2585   1.087       .  S
C2577      C2578   1.350       .  D
C2578      H2586   1.084       .  S
C2587      C2595   1.471       .  S
C2587      C2588   1.398       .  A
C2587      C2592   1.405       .  A
C2588      C2589   1.390       .  A
C2588      H2597   1.084       .  S
C2589      C2590   1.407       .  A
C2589      H2598   1.082       .  S
C2590      C2593   1.482       .  S
C2590      C2591   1.405       .  A
C2591      C2592   1.402       .  A
C2591      H2599   1.083       .  S
C2592      H2600   1.083       .  S
C2593      H2601   1.087       .  S
C2593      C2594   1.344       .  D
C2594      H2602   1.086       .  S
C2595      H2603   1.089       .  S
C2595      C2596   1.341       .  D
C2596      H2604   1.086       .  S
C2605      C2613   1.486       .  S
C2605      C2606   1.403       .  A
C2605      C2610   1.407       .  A
C2606      C2607   1.398       .  A
C2606      H2615   1.084       .  S
C2607      C2608   1.406       .  A
C2607      H2616   1.083       .  S
C2608      C2611   1.490       .  S
C2608      C2609   1.406       .  A
C2609      C2610   1.405       .  A
C2609      H2617   1.083       .  S
C2610      H2618   1.083       .  S
C2611      H2619   1.087       .  S
C2611      C2612   1.346       .  D
C2612      H2620   1.087       .  S
C2613      H2621   1.087       .  S
C2613      C2614   1.348       .  D
C2614      H2622   1.086       .  S
C2623      C2631   1.489       .  S
C2623      C2624   1.403       .  A
C2623      C2628   1.408       .  A
C2624      C2625   1.401   1_455  A
C2624      H2633   1.083       .  S
C2625      C2626   1.409       .  A
C2625      H2634   1.082       .  S
C2626      C2629   1.488       .  S
C2626      C2627   1.403   1_655  A
C2627      C2628   1.398       .  A
C2627      H2635   1.083   1_455  S
C2628      H2636   1.082       .  S
C2629      H2637   1.087       .  S
C2629      C2630   1.346       .  D
C2630      H2638   1.086       .  S
C2631      H2639   1.087       .  S
C2631      C2632   1.346       .  D
C2632      H2640   1.086       .  S
C2641      C2649   1.486       .  S
C2641      C2642   1.407       .  A
C2641      C2646   1.403       .  A
C2642      C2643   1.406       .  A
C2642      H2651   1.082       .  S
C2643      C2644   1.410       .  A
C2643      H2652   1.082       .  S
C2644      C2647   1.488       .  S
C2644      C2645   1.402       .  A
C2645      C2646   1.394       .  A
C2645      H2653   1.084       .  S
C2646      H2654   1.084       .  S
C2647      H2655   1.088       .  S
C2647      C2648   1.347       .  D
C2648      H2656   1.085       .  S
C2649      H2657   1.088       .  S
C2649      C2650   1.348       .  D
C2650      H2658   1.085       .  S
C2659      C2667   1.477       .  S
C2659      C2660   1.402       .  A
C2659      C2664   1.405       .  A
C2660      C2661   1.395       .  A
C2660      H2669   1.084       .  S
C2661      C2662   1.406       .  A
C2661      H2670   1.082       .  S
C2662      C2665   1.482       .  S
C2662      C2663   1.404       .  A
C2663      C2664   1.400       .  A
C2663      H2671   1.083       .  S
C2664      H2672   1.083       .  S
C2665      H2673   1.087       .  S
C2665      C2666   1.344       .  D
C2666      H2674   1.086       .  S
C2667      H2675   1.089       .  S
C2667      C2668   1.343       .  D
C2668      H2676   1.085       .  S
C2677      C2685   1.492       .  S
C2677      C2678   1.403       .  A
C2677      C2682   1.412       .  A
C2678      C2679   1.394   1_554  A
C2678      H2687   1.084       .  S
C2679      C2680   1.406       .  A
C2679      H2688   1.083       .  S
C2680      C2683   1.487       .  S
C2680      C2681   1.402       .  A
C2681      C2682   1.404   1_556  A
C2681      H2689   1.083       .  S
C2682      H2690   1.079       .  S
C2683      H2691   1.086       .  S
C2683      C2684   1.343       .  D
C2684      H2692   1.087       .  S
C2685      H2693   1.087       .  S
C2685      C2686   1.347       .  D
C2686      H2694   1.083       .  S
C2695      C2703   1.491       .  S
C2695      C2696   1.403       .  A
C2695      C2700   1.409       .  A
C2696      C2697   1.399   1_655  A
C2696      H2705   1.083       .  S
C2697      C2698   1.408       .  A
C2697      H2706   1.082       .  S
C2698      C2701   1.492       .  S
C2698      C2699   1.404       .  A
C2699      C2700   1.402   1_455  A
C2699      H2707   1.083       .  S
C2700      H2708   1.081       .  S
C2701      H2709   1.087       .  S
C2701      C2702   1.347       .  D
C2702      H2710   1.085       .  S
C2703      H2711   1.087       .  S
C2703      C2704   1.346       .  D
C2704      H2712   1.085       .  S
C2713      C2721   1.482       .  S
C2713      C2714   1.403       .  A
C2713      C2718   1.406       .  A
C2714      C2715   1.399       .  A
C2714      H2723   1.083       .  S
C2715      C2716   1.405       .  A
C2715      H2724   1.083       .  S
C2716      C2719   1.480       .  S
C2716      C2717   1.403       .  A
C2717      C2718   1.398       .  A
C2717      H2725   1.084       .  S
C2718      H2726   1.083       .  S
C2719      H2727   1.088       .  S
C2719      C2720   1.345       .  D
C2720      H2728   1.086       .  S
C2721      H2729   1.087       .  S
C2721      C2722   1.345       .  D
C2722      H2730   1.086       .  S
C2731      C2739   1.486       .  S
C2731      C2732   1.404       .  A
C2731      C2736   1.406       .  A
C2732      C2733   1.399       .  A
C2732      H2741   1.084       .  S
C2733      C2734   1.405       .  A
C2733      H2742   1.083       .  S
C2734      C2737   1.490       .  S
C2734      C2735   1.407       .  A
C2735      C2736   1.406       .  A
C2735      H2743   1.083       .  S
C2736      H2744   1.083       .  S
C2737      H2745   1.087       .  S
C2737      C2738   1.349       .  D
C2738      H2746   1.086       .  S
C2739      H2747   1.088       .  S
C2739      C2740   1.350       .  D
C2740      H2748   1.086       .  S
C2749      C2757   1.476       .  S
C2749      C2750   1.400       .  A
C2749      C2754   1.406       .  A
C2750      C2751   1.395       .  A
C2750      H2759   1.084       .  S
C2751      C2752   1.408       .  A
C2751      H2760   1.083       .  S
C2752      C2755   1.485       .  S
C2752      C2753   1.404       .  A
C2753      C2754   1.402       .  A
C2753      H2761   1.083       .  S
C2754      H2762   1.083       .  S
C2755      H2763   1.087       .  S
C2755      C2756   1.342       .  D
C2756      H2764   1.087       .  S
C2757      H2765   1.088       .  S
C2757      C2758   1.343       .  D
C2758      H2766   1.086       .  S
C2767      C2775   1.486       .  S
C2767      C2768   1.401       .  A
C2767      C2772   1.409       .  A
C2768      C2769   1.396   1_554  A
C2768      H2777   1.084       .  S
C2769      C2770   1.407       .  A
C2769      H2778   1.082       .  S
C2770      C2773   1.485       .  S
C2770      C2771   1.402       .  A
C2771      C2772   1.402   1_556  A
C2771      H2779   1.084       .  S
C2772      H2780   1.082       .  S
C2773      H2781   1.088       .  S
C2773      C2774   1.343       .  D
C2774      H2782   1.088       .  S
C2775      H2783   1.087       .  S
C2775      C2776   1.345       .  D
C2776      H2784   1.085       .  S
C2785      C2793   1.487       .  S
C2785      C2786   1.404       .  A
C2785      C2790   1.407       .  A
C2786      C2787   1.403       .  A
C2786      H2795   1.083       .  S
C2787      C2788   1.408       .  A
C2787      H2796   1.082       .  S
C2788      C2791   1.482       .  S
C2788      C2789   1.400       .  A
C2789      C2790   1.394       .  A
C2789      H2797   1.084       .  S
C2790      H2798   1.083       .  S
C2791      H2799   1.088       .  S
C2791      C2792   1.342       .  D
C2792      H2800   1.086       .  S
C2793      H2801   1.086       .  S
C2793      C2794   1.343       .  D
C2794      H2802   1.087       .  S
C2803      C2811   1.487       .  S
C2803      C2804   1.403       .  A
C2803      C2808   1.409       .  A
C2804      C2805   1.398       .  A
C2804      H2813   1.084       .  S
C2805      C2806   1.409       .  A
C2805      H2814   1.081       .  S
C2806      C2809   1.489       .  S
C2806      C2807   1.403       .  A
C2807      C2808   1.397       .  A
C2807      H2815   1.084       .  S
C2808      H2816   1.080       .  S
C2809      H2817   1.089       .  S
C2809      C2810   1.344       .  D
C2810      H2818   1.086       .  S
C2811      H2819   1.087       .  S
C2811      C2812   1.345       .  D
C2812      H2820   1.084       .  S
C2821      C2829   1.478       .  S
C2821      C2822   1.400       .  A
C2821      C2826   1.406       .  A
C2822      C2823   1.398       .  A
C2822      H2831   1.083       .  S
C2823      C2824   1.409       .  A
C2823      H2832   1.081       .  S
C2824      C2827   1.483       .  S
C2824      C2825   1.402       .  A
C2825      C2826   1.396       .  A
C2825      H2833   1.084       .  S
C2826      H2834   1.083       .  S
C2827      H2835   1.087       .  S
C2827      C2828   1.344       .  D
C2828      H2836   1.085       .  S
C2829      H2837   1.087       .  S
C2829      C2830   1.342       .  D
C2830      H2838   1.087       .  S
C2839      C2847   1.484       .  S
C2839      C2840   1.404       .  A
C2839      C2844   1.406       .  A
C2840      C2841   1.400       .  A
C2840      H2849   1.083       .  S
C2841      C2842   1.405       .  A
C2841      H2850   1.083       .  S
C2842      C2845   1.484       .  S
C2842      C2843   1.404       .  A
C2843      C2844   1.402       .  A
C2843      H2851   1.083       .  S
C2844      H2852   1.083       .  S
C2845      H2853   1.087       .  S
C2845      C2846   1.346       .  D
C2846      H2854   1.086       .  S
C2847      H2855   1.088       .  S
C2847      C2848   1.347       .  D
C2848      H2856   1.086       .  S
C2857      C2865   1.484       .  S
C2857      C2858   1.409       .  A
C2857      C2862   1.400       .  A
C2858      C2859   1.405       .  A
C2858      H2867   1.081       .  S
C2859      C2860   1.409       .  A
C2859      H2868   1.081       .  S
C2860      C2863   1.485       .  S
C2860      C2861   1.402       .  A
C2861      C2862   1.390       .  A
C2861      H2869   1.084       .  S
C2862      H2870   1.084       .  S
C2863      H2871   1.087       .  S
C2863      C2864   1.349       .  D
C2864      H2872   1.084       .  S
C2865      H2873   1.088       .  S
C2865      C2866   1.345       .  D
C2866      H2874   1.085       .  S
C2875      C2883   1.488       .  S
C2875      C2876   1.404       .  A
C2875      C2880   1.407       .  A
C2876      C2877   1.396       .  A
C2876      H2885   1.084       .  S
C2877      C2878   1.407       .  A
C2877      H2886   1.081       .  S
C2878      C2881   1.491       .  S
C2878      C2879   1.405       .  A
C2879      C2880   1.403       .  A
C2879      H2887   1.083       .  S
C2880      H2888   1.081       .  S
C2881      H2889   1.087       .  S
C2881      C2882   1.347       .  D
C2882      H2890   1.085       .  S
C2883      H2891   1.087       .  S
C2883      C2884   1.351       .  D
C2884      H2892   1.084       .  S
C2893      C2901   1.495       .  S
C2893      C2894   1.404       .  A
C2893      C2898   1.410       .  A
C2894      C2895   1.400       .  A
C2894      H2903   1.083       .  S
C2895      C2896   1.409       .  A
C2895      H2904   1.082       .  S
C2896      C2899   1.495       .  S
C2896      C2897   1.404       .  A
C2897      C2898   1.404       .  A
C2897      H2905   1.083       .  S
C2898      H2906   1.081       .  S
C2899      H2907   1.086       .  S
C2899      C2900   1.346       .  D
C2900      H2908   1.085       .  S
C2901      H2909   1.087       .  S
C2901      C2902   1.350       .  D
C2902      H2910   1.084       .  S
C2911      C2919   1.480       .  S
C2911      C2912   1.400       .  A
C2911      C2916   1.408       .  A
C2912      C2913   1.394       .  A
C2912      H2921   1.084       .  S
C2913      C2914   1.407       .  A
C2913      H2922   1.083       .  S
C2914      C2917   1.484       .  S
C2914      C2915   1.402       .  A
C2915      C2916   1.401       .  A
C2915      H2923   1.083       .  S
C2916      H2924   1.082       .  S
C2917      H2925   1.086       .  S
C2917      C2918   1.343       .  D
C2918      H2926   1.087       .  S
C2919      H2927   1.088       .  S
C2919      C2920   1.342       .  D
C2920      H2928   1.086       .  S
C2929      C2937   1.484       .  S
C2929      C2930   1.403       .  A
C2929      C2934   1.406       .  A
C2930      C2931   1.399       .  A
C2930      H2939   1.083       .  S
C2931      C2932   1.406       .  A
C2931      H2940   1.083       .  S
C2932      C2935   1.486       .  S
C2932      C2933   1.404       .  A
C2933      C2934   1.402       .  A
C2933      H2941   1.083       .  S
C2934      H2942   1.083       .  S
C2935      H2943   1.087       .  S
C2935      C2936   1.344       .  D
C2936      H2944   1.087       .  S
C2937      H2945   1.087       .  S
C2937      C2938   1.347       .  D
C2938      H2946   1.086       .  S
C2947      C2955   1.482       .  S
C2947      C2948   1.403       .  A
C2947      C2952   1.409       .  A
C2948      C2949   1.393       .  A
C2948      H2957   1.084       .  S
C2949      C2950   1.402       .  A
C2949      H2958   1.084       .  S
C2950      C2953   1.479       .  S
C2950      C2951   1.403       .  A
C2951      C2952   1.405       .  A
C2951      H2959   1.083       .  S
C2952      H2960   1.082       .  S
C2953      H2961   1.086       .  S
C2953      C2954   1.340       .  D
C2954      H2962   1.088       .  S
C2955      H2963   1.087       .  S
C2955      C2956   1.349       .  D
C2956      H2964   1.085       .  S
C2965      C2973   1.484       .  S
C2965      C2966   1.402       .  A
C2965      C2970   1.407       .  A
C2966      C2967   1.399       .  A
C2966      H2975   1.083       .  S
C2967      C2968   1.410       .  A
C2967      H2976   1.081       .  S
C2968      C2971   1.490       .  S
C2968      C2969   1.403       .  A
C2969      C2970   1.398       .  A
C2969      H2977   1.083       .  S
C2970      H2978   1.082       .  S
C2971      H2979   1.087       .  S
C2971      C2972   1.344       .  D
C2972      H2980   1.084       .  S
C2973      H2981   1.087       .  S
C2973      C2974   1.344       .  D
C2974      H2982   1.086       .  S
C2983      C2991   1.495       .  S
C2983      C2984   1.406       .  A
C2983      C2988   1.408       .  A
C2984      C2985   1.407   1_554  A
C2984      H2993   1.083       .  S
C2985      C2986   1.410       .  A
C2985      H2994   1.081       .  S
C2986      C2989   1.489       .  S
C2986      C2987   1.401       .  A
C2987      C2988   1.393   1_556  A
C2987      H2995   1.084       .  S
C2988      H2996   1.082       .  S
C2989      H2997   1.087       .  S
C2989      C2990   1.347       .  D
C2990      H2998   1.085       .  S
C2991      H2999   1.086       .  S
C2991      C2992   1.346       .  D
C2992      H3000   1.085       .  S
C3001      C3009   1.480       .  S
C3001      C3002   1.402       .  A
C3001      C3006   1.406       .  A
C3002      C3003   1.396       .  A
C3002      H3011   1.084       .  S
C3003      C3004   1.407       .  A
C3003      H3012   1.081       .  S
C3004      C3007   1.483       .  S
C3004      C3005   1.404       .  A
C3005      C3006   1.399       .  A
C3005      H3013   1.084       .  S
C3006      H3014   1.082       .  S
C3007      H3015   1.088       .  S
C3007      C3008   1.346       .  D
C3008      H3016   1.085       .  S
C3009      H3017   1.088       .  S
C3009      C3010   1.344       .  D
C3010      H3018   1.086       .  S
C3019      C3027   1.483       .  S
C3019      C3020   1.404       .  A
C3019      C3024   1.406       .  A
C3020      C3021   1.399       .  A
C3020      H3029   1.083       .  S
C3021      C3022   1.405       .  A
C3021      H3030   1.083       .  S
C3022      C3025   1.483       .  S
C3022      C3023   1.405       .  A
C3023      C3024   1.401       .  A
C3023      H3031   1.083       .  S
C3024      H3032   1.083       .  S
C3025      H3033   1.088       .  S
C3025      C3026   1.347       .  D
C3026      H3034   1.086       .  S
C3027      H3035   1.088       .  S
C3027      C3028   1.346       .  D
C3028      H3036   1.086       .  S
C3037      C3045   1.494       .  S
C3037      C3038   1.404       .  A
C3037      C3042   1.411       .  A
C3038      C3039   1.398   1_556  A
C3038      H3047   1.083       .  S
C3039      C3040   1.407       .  A
C3039      H3048   1.082       .  S
C3040      C3043   1.489       .  S
C3040      C3041   1.402       .  A
C3041      C3042   1.402   1_554  A
C3041      H3049   1.083       .  S
C3042      H3050   1.080       .  S
C3043      H3051   1.087       .  S
C3043      C3044   1.344       .  D
C3044      H3052   1.086       .  S
C3045      H3053   1.087       .  S
C3045      C3046   1.347       .  D
C3046      H3054   1.083       .  S
C3055      C3063   1.484       .  S
C3055      C3056   1.401       .  A
C3055      C3060   1.408       .  A
C3056      C3057   1.395   1_565  A
C3056      H3065   1.084       .  S
C3057      C3058   1.409       .  A
C3057      H3066   1.081       .  S
C3058      C3061   1.489       .  S
C3058      C3059   1.404       .  A
C3059      C3060   1.401   1_545  A
C3059      H3067   1.083       .  S
C3060      H3068   1.082       .  S
C3061      H3069   1.087       .  S
C3061      C3062   1.344       .  D
C3062      H3070   1.085       .  S
C3063      H3071   1.087       .  S
C3063      C3064   1.345       .  D
C3064      H3072   1.085       .  S
C3073      C3081   1.485       .  S
C3073      C3074   1.402       .  A
C3073      C3078   1.409       .  A
C3074      C3075   1.393       .  A
C3074      H3083   1.084       .  S
C3075      C3076   1.402       .  A
C3075      H3084   1.084       .  S
C3076      C3079   1.484       .  S
C3076      C3077   1.408       .  A
C3077      C3078   1.405       .  A
C3077      H3085   1.082       .  S
C3078      H3086   1.082       .  S
C3079      H3087   1.088       .  S
C3079      C3080   1.346       .  D
C3080      H3088   1.085       .  S
C3081      H3089   1.088       .  S
C3081      C3082   1.346       .  D
C3082      H3090   1.085       .  S
C3091      C3099   1.480       .  S
C3091      C3092   1.403       .  A
C3091      C3096   1.405       .  A
C3092      C3093   1.398       .  A
C3092      H3101   1.084       .  S
C3093      C3094   1.406       .  A
C3093      H3102   1.082       .  S
C3094      C3097   1.483       .  S
C3094      C3095   1.404       .  A
C3095      C3096   1.399       .  A
C3095      H3103   1.084       .  S
C3096      H3104   1.082       .  S
C3097      H3105   1.088       .  S
C3097      C3098   1.346       .  D
C3098      H3106   1.086       .  S
C3099      H3107   1.089       .  S
C3099      C3100   1.344       .  D
C3100      H3108   1.086       .  S
C3109      C3117   1.484       .  S
C3109      C3110   1.403       .  A
C3109      C3114   1.405       .  A
C3110      C3111   1.400       .  A
C3110      H3119   1.083       .  S
C3111      C3112   1.407       .  A
C3111      H3120   1.082       .  S
C3112      C3115   1.487       .  S
C3112      C3113   1.405       .  A
C3113      C3114   1.400       .  A
C3113      H3121   1.083       .  S
C3114      H3122   1.083       .  S
C3115      H3123   1.088       .  S
C3115      C3116   1.348       .  D
C3116      H3124   1.086       .  S
C3117      H3125   1.087       .  S
C3117      C3118   1.345       .  D
C3118      H3126   1.086       .  S
C3127      C3135   1.496       .  S
C3127      C3128   1.406       .  A
C3127      C3132   1.408       .  A
C3128      C3129   1.406   1_545  A
C3128      H3137   1.083       .  S
C3129      C3130   1.410       .  A
C3129      H3138   1.081       .  S
C3130      C3133   1.495       .  S
C3130      C3131   1.404       .  A
C3131      C3132   1.398   1_565  A
C3131      H3139   1.083       .  S
C3132      H3140   1.082       .  S
C3133      H3141   1.087       .  S
C3133      C3134   1.350       .  D
C3134      H3142   1.084       .  S
C3135      H3143   1.086       .  S
C3135      C3136   1.349       .  D
C3136      H3144   1.085       .  S
C3145      C3153   1.483       .  S
C3145      C3146   1.404       .  A
C3145      C3150   1.406       .  A
C3146      C3147   1.400       .  A
C3146      H3155   1.083       .  S
C3147      C3148   1.405       .  A
C3147      H3156   1.083       .  S
C3148      C3151   1.484       .  S
C3148      C3149   1.404       .  A
C3149      C3150   1.402       .  A
C3149      H3157   1.083       .  S
C3150      H3158   1.083       .  S
C3151      H3159   1.087       .  S
C3151      C3152   1.346       .  D
C3152      H3160   1.086       .  S
C3153      H3161   1.088       .  S
C3153      C3154   1.346       .  D
C3154      H3162   1.086       .  S
C3163      C3171   1.487       .  S
C3163      C3164   1.404       .  A
C3163      C3168   1.406       .  A
C3164      C3165   1.399       .  A
C3164      H3173   1.084       .  S
C3165      C3166   1.407       .  A
C3165      H3174   1.081       .  S
C3166      C3169   1.491       .  S
C3166      C3167   1.407       .  A
C3167      C3168   1.402       .  A
C3167      H3175   1.084       .  S
C3168      H3176   1.082       .  S
C3169      H3177   1.088       .  S
C3169      C3170   1.351       .  D
C3170      H3178   1.085       .  S
C3171      H3179   1.088       .  S
C3171      C3172   1.349       .  D
C3172      H3180   1.086       .  S
C3181      C3189   1.489       .  S
C3181      C3182   1.404       .  A
C3181      C3186   1.408       .  A
C3182      C3183   1.399       .  A
C3182      H3191   1.084       .  S
C3183      C3184   1.407       .  A
C3183      H3192   1.081       .  S
C3184      C3187   1.485       .  S
C3184      C3185   1.402       .  A
C3185      C3186   1.397       .  A
C3185      H3193   1.084       .  S
C3186      H3194   1.081       .  S
C3187      H3195   1.087       .  S
C3187      C3188   1.346       .  D
C3188      H3196   1.085       .  S
C3189      H3197   1.087       .  S
C3189      C3190   1.346       .  D
C3190      H3198   1.084       .  S
C3199      C3207   1.478       .  S
C3199      C3200   1.403       .  A
C3199      C3204   1.405       .  A
C3200      C3201   1.400       .  A
C3200      H3209   1.083       .  S
C3201      C3202   1.405       .  A
C3201      H3210   1.083       .  S
C3202      C3205   1.475       .  S
C3202      C3203   1.401       .  A
C3203      C3204   1.395       .  A
C3203      H3211   1.084       .  S
C3204      H3212   1.083       .  S
C3205      H3213   1.088       .  S
C3205      C3206   1.344       .  D
C3206      H3214   1.086       .  S
C3207      H3215   1.087       .  S
C3207      C3208   1.343       .  D
C3208      H3216   1.087       .  S
C3217      C3225   1.493       .  S
C3217      C3218   1.404       .  A
C3217      C3222   1.407       .  A
C3218      C3219   1.405       .  A
C3218      H3227   1.083       .  S
C3219      C3220   1.411       .  A
C3219      H3228   1.080       .  S
C3220      C3223   1.494       .  S
C3220      C3221   1.403       .  A
C3221      C3222   1.397       .  A
C3221      H3229   1.083       .  S
C3222      H3230   1.082       .  S
C3223      H3231   1.087       .  S
C3223      C3224   1.348       .  D
C3224      H3232   1.083       .  S
C3225      H3233   1.086       .  S
C3225      C3226   1.346       .  D
C3226      H3234   1.086       .  S
C3235      C3243   1.491       .  S
C3235      C3236   1.403       .  A
C3235      C3240   1.409       .  A
C3236      C3237   1.398       .  A
C3236      H3245   1.083       .  S
C3237      C3238   1.408       .  A
C3237      H3246   1.082       .  S
C3238      C3241   1.493       .  S
C3238      C3239   1.405       .  A
C3239      C3240   1.404       .  A
C3239      H3247   1.083       .  S
C3240      H3248   1.081       .  S
C3241      H3249   1.086       .  S
C3241      C3242   1.346       .  D
C3242      H3250   1.086       .  S
C3243      H3251   1.087       .  S
C3243      C3244   1.348       .  D
C3244      H3252   1.085       .  S
C3253      C3261   1.496       .  S
C3253      C3254   1.404       .  A
C3253      C3258   1.412       .  A
C3254      C3255   1.397       .  A
C3254      H3263   1.083       .  S
C3255      C3256   1.407       .  A
C3255      H3264   1.082       .  S
C3256      C3259   1.495       .  S
C3256      C3257   1.405       .  A
C3257      C3258   1.407       .  A
C3257      H3265   1.083       .  S
C3258      H3266   1.081       .  S
C3259      H3267   1.086       .  S
C3259      C3260   1.346       .  D
C3260      H3268   1.086       .  S
C3261      H3269   1.087       .  S
C3261      C3262   1.349       .  D
C3262      H3270   1.084       .  S
C3271      C3279   1.484       .  S
C3271      C3272   1.401       .  A
C3271      C3276   1.408       .  A
C3272      C3273   1.397       .  A
C3272      H3281   1.083       .  S
C3273      C3274   1.409       .  A
C3273      H3282   1.081       .  S
C3274      C3277   1.486       .  S
C3274      C3275   1.402       .  A
C3275      C3276   1.397       .  A
C3275      H3283   1.083       .  S
C3276      H3284   1.082       .  S
C3277      H3285   1.087       .  S
C3277      C3278   1.343       .  D
C3278      H3286   1.084       .  S
C3279      H3287   1.087       .  S
C3279      C3280   1.342       .  D
C3280      H3288   1.085       .  S
C3289      C3297   1.491       .  S
C3289      C3290   1.404       .  A
C3289      C3294   1.408       .  A
C3290      C3291   1.400       .  A
C3290      H3299   1.083       .  S
C3291      C3292   1.408       .  A
C3291      H3300   1.081       .  S
C3292      C3295   1.493       .  S
C3292      C3293   1.405       .  A
C3293      C3294   1.401       .  A
C3293      H3301   1.083       .  S
C3294      H3302   1.081       .  S
C3295      H3303   1.087       .  S
C3295      C3296   1.349       .  D
C3296      H3304   1.084       .  S
C3297      H3305   1.087       .  S
C3297      C3298   1.349       .  D
C3298      H3306   1.084       .  S
C3307      C3315   1.485       .  S
C3307      C3308   1.402       .  A
C3307      C3312   1.409       .  A
C3308      C3309   1.396       .  A
C3308      H3317   1.083       .  S
C3309      C3310   1.407       .  A
C3309      H3318   1.083       .  S
C3310      C3313   1.487       .  S
C3310      C3311   1.403       .  A
C3311      C3312   1.402       .  A
C3311      H3319   1.083       .  S
C3312      H3320   1.082       .  S
C3313      H3321   1.086       .  S
C3313      C3314   1.345       .  D
C3314      H3322   1.086       .  S
C3315      H3323   1.087       .  S
C3315      C3316   1.344       .  D
C3316      H3324   1.085       .  S
C3325      C3333   1.489       .  S
C3325      C3326   1.402       .  A
C3325      C3330   1.411       .  A
C3326      C3327   1.396       .  A
C3326      H3335   1.083       .  S
C3327      C3328   1.407       .  A
C3327      H3336   1.083       .  S
C3328      C3331   1.488       .  S
C3328      C3329   1.403       .  A
C3329      C3330   1.403       .  A
C3329      H3337   1.083       .  S
C3330      H3338   1.081       .  S
C3331      H3339   1.086       .  S
C3331      C3332   1.344       .  D
C3332      H3340   1.087       .  S
C3333      H3341   1.087       .  S
C3333      C3334   1.346       .  D
C3334      H3342   1.084       .  S
C3343      C3351   1.480       .  S
C3343      C3344   1.408       .  A
C3343      C3348   1.400       .  A
C3344      C3345   1.403       .  A
C3344      H3353   1.082       .  S
C3345      C3346   1.408       .  A
C3345      H3354   1.081       .  S
C3346      C3349   1.481       .  S
C3346      C3347   1.402       .  A
C3347      C3348   1.391       .  A
C3347      H3355   1.084       .  S
C3348      H3356   1.084       .  S
C3349      H3357   1.088       .  S
C3349      C3350   1.346       .  D
C3350      H3358   1.085       .  S
C3351      H3359   1.088       .  S
C3351      C3352   1.344       .  D
C3352      H3360   1.085       .  S
C3361      C3369   1.482       .  S
C3361      C3362   1.402       .  A
C3361      C3366   1.407       .  A
C3362      C3363   1.393       .  A
C3362      H3371   1.084       .  S
C3363      C3364   1.401       .  A
C3363      H3372   1.084       .  S
C3364      C3367   1.484       .  S
C3364      C3365   1.409       .  A
C3365      C3366   1.399       .  A
C3365      H3373   1.081       .  S
C3366      H3374   1.081       .  S
C3367      H3375   1.087       .  S
C3367      C3368   1.344       .  D
C3368      H3376   1.084       .  S
C3369      H3377   1.088       .  S
C3369      C3370   1.347       .  D
C3370      H3378   1.084       .  S
C3379      C3387   1.492       .  S
C3379      C3380   1.402       .  A
C3379      C3384   1.409       .  A
C3380      C3381   1.396   1_655  A
C3380      H3389   1.084       .  S
C3381      C3382   1.411       .  A
C3381      H3390   1.078       .  S
C3382      C3385   1.501       .  S
C3382      C3383   1.407       .  A
C3383      C3384   1.405   1_455  A
C3383      H3391   1.083       .  S
C3384      H3392   1.081       .  S
C3385      H3393   1.087       .  S
C3385      C3386   1.348       .  D
C3386      H3394   1.081       .  S
C3387      H3395   1.087       .  S
C3387      C3388   1.349       .  D
C3388      H3396   1.084       .  S
C3397      C3405   1.493       .  S
C3397      C3398   1.403   1_545  A
C3397      C3402   1.410   1_545  A
C3398      C3399   1.398       .  A
C3398      H3407   1.083       .  S
C3399      C3400   1.409       .  A
C3399      H3408   1.081       .  S
C3400      C3403   1.496       .  S
C3400      C3401   1.405       .  A
C3401      C3402   1.404       .  A
C3401      H3409   1.083       .  S
C3402      H3410   1.081   1_565  S
C3403      H3411   1.087       .  S
C3403      C3404   1.347       .  D
C3404      H3412   1.085       .  S
C3405      H3413   1.087       .  S
C3405      C3406   1.347       .  D
C3406      H3414   1.085       .  S
C3415      C3423   1.478       .  S
C3415      C3416   1.399       .  A
C3415      C3420   1.407       .  A
C3416      C3417   1.394       .  A
C3416      H3425   1.084       .  S
C3417      C3418   1.409       .  A
C3417      H3426   1.082       .  S
C3418      C3421   1.490       .  S
C3418      C3419   1.404       .  A
C3419      C3420   1.403       .  A
C3419      H3427   1.083       .  S
C3420      H3428   1.083       .  S
C3421      H3429   1.087       .  S
C3421      C3422   1.343       .  D
C3422      H3430   1.086       .  S
C3423      H3431   1.088       .  S
C3423      C3424   1.341       .  D
C3424      H3432   1.087       .  S
C3433      C3441   1.483       .  S
C3433      C3434   1.403       .  A
C3433      C3438   1.407       .  A
C3434      C3435   1.399       .  A
C3434      H3443   1.083       .  S
C3435      C3436   1.405       .  A
C3435      H3444   1.083       .  S
C3436      C3439   1.481       .  S
C3436      C3437   1.403       .  A
C3437      C3438   1.401       .  A
C3437      H3445   1.083       .  S
C3438      H3446   1.083       .  S
C3439      H3447   1.087       .  S
C3439      C3440   1.344       .  D
C3440      H3448   1.087       .  S
C3441      H3449   1.088       .  S
C3441      C3442   1.347       .  D
C3442      H3450   1.086       .  S
C3451      C3459   1.497       .  S
C3451      C3452   1.404       .  A
C3451      C3456   1.410       .  A
C3452      C3453   1.398   1_556  A
C3452      H3461   1.084       .  S
C3453      C3454   1.408       .  A
C3453      H3462   1.081       .  S
C3454      C3457   1.501       .  S
C3454      C3455   1.408       .  A
C3455      C3456   1.409   1_554  A
C3455      H3463   1.083       .  S
C3456      H3464   1.081       .  S
C3457      H3465   1.086       .  S
C3457      C3458   1.350       .  D
C3458      H3466   1.085       .  S
C3459      H3467   1.087       .  S
C3459      C3460   1.351       .  D
C3460      H3468   1.085       .  S
C3469      C3477   1.491       .  S
C3469      C3470   1.403       .  A
C3469      C3474   1.407       .  A
C3470      C3471   1.404       .  A
C3470      H3479   1.083       .  S
C3471      C3472   1.412   1_565  A
C3471      H3480   1.079   1_565  S
C3472      C3475   1.495       .  S
C3472      C3473   1.404   1_545  A
C3473      C3474   1.396       .  A
C3473      H3481   1.084   1_565  S
C3474      H3482   1.082       .  S
C3475      H3483   1.087       .  S
C3475      C3476   1.347       .  D
C3476      H3484   1.083       .  S
C3477      H3485   1.086       .  S
C3477      C3478   1.345       .  D
C3478      H3486   1.086       .  S
C3487      C3495   1.492       .  S
C3487      C3488   1.410       .  A
C3487      C3492   1.403       .  A
C3488      C3489   1.403       .  A
C3488      H3497   1.082       .  S
C3489      C3490   1.405       .  A
C3489      H3498   1.083       .  S
C3490      C3493   1.484       .  S
C3490      C3491   1.404       .  A
C3491      C3492   1.399       .  A
C3491      H3499   1.084       .  S
C3492      H3500   1.083       .  S
C3493      H3501   1.088       .  S
C3493      C3494   1.348       .  D
C3494      H3502   1.086       .  S
C3495      H3503   1.087       .  S
C3495      C3496   1.344       .  D
C3496      H3504   1.086       .  S
C3505      C3513   1.484       .  S
C3505      C3506   1.403       .  A
C3505      C3510   1.407       .  A
C3506      C3507   1.399       .  A
C3506      H3515   1.084       .  S
C3507      C3508   1.407       .  A
C3507      H3516   1.082       .  S
C3508      C3511   1.486       .  S
C3508      C3509   1.404       .  A
C3509      C3510   1.399       .  A
C3509      H3517   1.083       .  S
C3510      H3518   1.082       .  S
C3511      H3519   1.087       .  S
C3511      C3512   1.346       .  D
C3512      H3520   1.085       .  S
C3513      H3521   1.088       .  S
C3513      C3514   1.347       .  D
C3514      H3522   1.086       .  S
C3523      C3531   1.483       .  S
C3523      C3524   1.402       .  A
C3523      C3528   1.406       .  A
C3524      C3525   1.399       .  A
C3524      H3533   1.083       .  S
C3525      C3526   1.407       .  A
C3525      H3534   1.083       .  S
C3526      C3529   1.486       .  S
C3526      C3527   1.404       .  A
C3527      C3528   1.402       .  A
C3527      H3535   1.083       .  S
C3528      H3536   1.083       .  S
C3529      H3537   1.087       .  S
C3529      C3530   1.346       .  D
C3530      H3538   1.087       .  S
C3531      H3539   1.087       .  S
C3531      C3532   1.346       .  D
C3532      H3540   1.086       .  S
C3541      C3549   1.489       .  S
C3541      C3542   1.403       .  A
C3541      C3546   1.407       .  A
C3542      C3543   1.401   1_556  A
C3542      H3551   1.083       .  S
C3543      C3544   1.410       .  A
C3543      H3552   1.080       .  S
C3544      C3547   1.491       .  S
C3544      C3545   1.404       .  A
C3545      C3546   1.398   1_554  A
C3545      H3553   1.084       .  S
C3546      H3554   1.082       .  S
C3547      H3555   1.087       .  S
C3547      C3548   1.347       .  D
C3548      H3556   1.084       .  S
C3549      H3557   1.087       .  S
C3549      C3550   1.345       .  D
C3550      H3558   1.086       .  S
C3559      C3567   1.494       .  S
C3559      C3560   1.404       .  A
C3559      C3564   1.411       .  A
C3560      C3561   1.399   1_455  A
C3560      H3569   1.083       .  S
C3561      C3562   1.408       .  A
C3561      H3570   1.081       .  S
C3562      C3565   1.490       .  S
C3562      C3563   1.402       .  A
C3563      C3564   1.400   1_655  A
C3563      H3571   1.083       .  S
C3564      H3572   1.079       .  S
C3565      H3573   1.087       .  S
C3565      C3566   1.346       .  D
C3566      H3574   1.085       .  S
C3567      H3575   1.087       .  S
C3567      C3568   1.347       .  D
C3568      H3576   1.082       .  S
C3577      C3585   1.481       .  S
C3577      C3578   1.402       .  A
C3577      C3582   1.407       .  A
C3578      C3579   1.392       .  A
C3578      H3587   1.084       .  S
C3579      C3580   1.407       .  A
C3579      H3588   1.081       .  S
C3580      C3583   1.484       .  S
C3580      C3581   1.404       .  A
C3581      C3582   1.400       .  A
C3581      H3589   1.083       .  S
C3582      H3590   1.081       .  S
C3583      H3591   1.087       .  S
C3583      C3584   1.343       .  D
C3584      H3592   1.085       .  S
C3585      H3593   1.088       .  S
C3585      C3586   1.347       .  D
C3586      H3594   1.084       .  S
C3595      C3603   1.489       .  S
C3595      C3596   1.409       .  A
C3595      C3600   1.404       .  A
C3596      C3597   1.401       .  A
C3596      H3605   1.080       .  S
C3597      C3598   1.408       .  A
C3597      H3606   1.081       .  S
C3598      C3601   1.484       .  S
C3598      C3599   1.401       .  A
C3599      C3600   1.395       .  A
C3599      H3607   1.084       .  S
C3600      H3608   1.084       .  S
C3601      H3609   1.087       .  S
C3601      C3602   1.346       .  D
C3602      H3610   1.085       .  S
C3603      H3611   1.087       .  S
C3603      C3604   1.350       .  D
C3604      H3612   1.083       .  S
C3613      C3621   1.485       .  S
C3613      C3614   1.403       .  A
C3613      C3618   1.407       .  A
C3614      C3615   1.399       .  A
C3614      H3623   1.083       .  S
C3615      C3616   1.407       .  A
C3615      H3624   1.082       .  S
C3616      C3619   1.486       .  S
C3616      C3617   1.404       .  A
C3617      C3618   1.399       .  A
C3617      H3625   1.084       .  S
C3618      H3626   1.082       .  S
C3619      H3627   1.088       .  S
C3619      C3620   1.348       .  D
C3620      H3628   1.085       .  S
C3621      H3629   1.088       .  S
C3621      C3622   1.345       .  D
C3622      H3630   1.086       .  S
C3631      C3639   1.485       .  S
C3631      C3632   1.405       .  A
C3631      C3636   1.406       .  A
C3632      C3633   1.401       .  A
C3632      H3641   1.084       .  S
C3633      C3634   1.406       .  A
C3633      H3642   1.083       .  S
C3634      C3637   1.484       .  S
C3634      C3635   1.403       .  A
C3635      C3636   1.401       .  A
C3635      H3643   1.083       .  S
C3636      H3644   1.082       .  S
C3637      H3645   1.087       .  S
C3637      C3638   1.346       .  D
C3638      H3646   1.086       .  S
C3639      H3647   1.088       .  S
C3639      C3640   1.348       .  D
C3640      H3648   1.086       .  S
