geometry optimzed in LAMMPS
_audit_creation_date              2020-11-30 
_audit_creation_method            'lammps2cif' 
_symmetry_space_group_name_H-M    'P1' 
_symmetry_Int_Tables_number       1 
_symmetry_cell_setting            triclinic 
loop_ 
_symmetry_equiv_pos_as_xyz 
  x,y,z 
_cell_length_a                    29.72852926 
_cell_length_b                    29.809334135449937 
_cell_length_c                    29.944988448415522 
_cell_angle_alpha                 90.16864894625037 
_cell_angle_beta                  90.0768554958413 
_cell_angle_gamma                 90.06076718517036 
loop_ 
_atom_site_label 
_atom_site_type_symbol 
_atom_site_fract_x 
_atom_site_fract_y 
_atom_site_fract_z 
_atom_site_charge 
O1          O  0.44728343  0.42043019  0.54514518    -0.78400
C2          C  0.54720603  0.40972006  0.43944256     0.82600
O3          O  0.57922914  0.50315262  0.59696704    -0.79500
O4          O  0.58111546  0.54958150  0.44139548    -0.81000
O5          O  0.41964105  0.54714618  0.45174857    -0.80800
O6          O  0.40151730  0.47904769  0.53905467    -0.79400
Zn7        Zn  0.50904963  0.44296878  0.52839350     1.55700
O8          O  0.47700535  0.53787908  0.40513640    -0.80800
Cd9        Cd  0.44372460  0.52789103  0.51345503     1.59700
Cd10       Cd  0.54747213  0.54435854  0.54916679     1.59600
O11         O  0.44011547  0.58378890  0.55404764    -0.80800
O12         O  0.50690132  0.50581751  0.51030293    -1.91300
Cd13       Cd  0.52536438  0.50996199  0.44651038     1.59900
O14         O  0.50895171  0.59349603  0.58263869    -0.80800
O15         O  0.54327249  0.44829501  0.42172781    -0.79400
C16         C  0.57415352  0.46148958  0.60599664     0.83100
C17         C  0.40856605  0.43825808  0.54952580     0.82800
O18         O  0.53565400  0.40285337  0.47985437    -0.78400
C19         C  0.43678424  0.55021394  0.41291365     0.83600
O20         O  0.54810350  0.43638042  0.58312762    -0.78500
C21         C  0.46754644  0.60478808  0.57931419     0.83700
C22         C  0.60482212  0.57377906  0.46739332     0.84000
O23         O  0.59649991  0.57678158  0.50926779    -0.80900
O24         O  0.05821662  0.41946265  0.46789003    -0.78400
C25         C  0.95827675  0.41912273  0.57866021     0.82600
O26         O  0.93137143  0.51120166  0.41955802    -0.79500
O27         O  0.93480326  0.56013803  0.57380969    -0.81000
O28         O  0.09765383  0.54362705  0.56063166    -0.80800
O29         O  0.10814808  0.47475594  0.47082674    -0.79400
Zn30       Zn  0.99853953  0.44662958  0.48809951     1.55700
O31         O  0.03934964  0.54212728  0.60709440    -0.80800
Cd32       Cd  0.07009091  0.52564092  0.49968598     1.59700
Cd33       Cd  0.96626229  0.55023038  0.46658237     1.59600
O34         O  0.07583747  0.58095942  0.45963120    -0.80800
O35         O  0.00513753  0.50936493  0.50471414    -1.91300
Cd36       Cd  0.98775035  0.51684449  0.56834036     1.59900
O37         O  0.00725550  0.59623670  0.43283576    -0.80800
O38         O  0.96503865  0.45787106  0.59533057    -0.79400
C39         C  0.93286573  0.46901679  0.41196523     0.83100
C40         C  0.09786320  0.43446135  0.46075689     0.82800
O41         O  0.96967813  0.41018121  0.53849022    -0.78400
C42         C  0.08062347  0.55025945  0.59911532     0.83600
O43         O  0.95723418  0.44268277  0.43507324    -0.78500
C44         C  0.04949149  0.60399313  0.43525510     0.83700
C45         C  0.91153915  0.58450093  0.54777315     0.84000
O46         O  0.91909409  0.58593424  0.50575009    -0.80900
O47         O  0.45486198  0.59647508  0.96874402    -0.78400
C48         C  0.55508322  0.60353369  0.07588883     0.82600
O49         O  0.58507957  0.50888964  0.91846791    -0.79500
O50         O  0.58225672  0.46302564  0.07405562    -0.81000
O51         O  0.42200342  0.46576673  0.05961621    -0.80800
O52         O  0.40716008  0.53921289  0.97524711    -0.79400
Zn53       Zn  0.51578447  0.57165251  0.98653858     1.55700
O54         O  0.47772422  0.47607168  0.10797021    -0.80800
Cd55       Cd  0.44718001  0.48865319  0.99957840     1.59700
Cd56       Cd  0.54999305  0.46872567  0.96501954     1.59600
O57         O  0.44110581  0.43602727  0.95570385    -0.80800
O58         O  0.51089993  0.50878829  0.00393790    -1.91300
Cd59       Cd  0.52777021  0.50431796  0.06825815     1.59900
O60         O  0.50972488  0.42198489  0.92904150    -0.80800
O61         O  0.54788019  0.56546753  0.09380310    -0.79400
C62         C  0.58093491  0.55068921  0.90959942     0.83100
C63         C  0.41562983  0.57963466  0.96448017     0.82800
O64         O  0.54490284  0.61071164  0.03511236    -0.78400
C65         C  0.43827342  0.46201918  0.09882623     0.83600
O66         O  0.55516235  0.57610954  0.93229871    -0.78500
C67         C  0.46741141  0.41389765  0.93045659     0.83700
C68         C  0.60428875  0.43707704  0.04835560     0.84000
O69         O  0.59595810  0.43405971  0.00644214    -0.80900
O70         O  0.47446412  0.04113003  0.61283610    -0.78400
C71         C  0.55050265  0.91714899  0.58477931     0.82600
O72         O  0.58967157  0.08434480  0.50713153    -0.79500
O73         O  0.55275332  0.93694802  0.43898567    -0.81000
O74         O  0.40275456  0.97580896  0.48059554    -0.80800
O75         O  0.41587222  0.04617407  0.56721220    -0.79400
Zn76       Zn  0.52387989  0.01577779  0.57280600     1.55700
O77         O  0.44978181  0.91777126  0.47606670    -0.80800
Cd78       Cd  0.44157802  0.02698958  0.50628604     1.59700
Cd79       Cd  0.54314200  0.04713606  0.46865148     1.59600
O80         O  0.43373471  0.08043908  0.46362397    -0.80800
O81         O  0.50588488  0.00893879  0.51070611    -1.91300
Cd82       Cd  0.51143956  0.94404520  0.49404656     1.59900
O83         O  0.50095373  0.09153780  0.43247971    -0.80800
O84         O  0.53882974  0.90582620  0.54533906    -0.79400
C85         C  0.59791402  0.08290216  0.54907973     0.83100
C86         C  0.43342036  0.05122458  0.60572913     0.82800
O87         O  0.54570325  0.95734599  0.59849489    -0.78400
C88         C  0.41095461  0.93504169  0.47078904     0.83600
O89         O  0.57565435  0.05801583  0.57550539    -0.78500
C90         C  0.45900997  0.10079388  0.43598392     0.83700
C91         C  0.57714374  0.96316259  0.41571624     0.84000
O92         O  0.57845745  0.00551713  0.42310400    -0.80900
O93         O  0.06580855  0.59639911  0.04396576    -0.78400
C94         C  0.96615185  0.60433763  0.93688499     0.82600
O95         O  0.93424733  0.50859820  0.09091363    -0.79500
O96         O  0.93487728  0.46242421  0.93478947    -0.81000
O97         O  0.09791013  0.47377394  0.94832528    -0.80800
O98         O  0.11395751  0.54015280  0.03772704    -0.79400
Zn99       Zn  0.00517581  0.57156241  0.02487302     1.55700
O100        O  0.03979087  0.47953267  0.90186880    -0.80800
Cd101      Cd  0.07246056  0.49180495  0.00944755     1.59700
Cd102      Cd  0.96850381  0.46989620  0.04302066     1.59600
O103        O  0.07633144  0.43566124  0.04783109    -0.80800
O104        O  0.00824426  0.50994629  0.00528805    -1.91300
Cd105      Cd  0.98932228  0.50509325  0.94152285     1.59900
O106        O  0.00783881  0.42128081  0.07480759    -0.80800
O107        O  0.97035561  0.56664141  0.91730809    -0.79400
C108        C  0.93822325  0.55036481  0.09989728     0.83100
C109        C  0.10532157  0.58044842  0.04886113     0.82800
O110        O  0.97803261  0.61052063  0.97729827    -0.78400
C111        C  0.08045915  0.46888148  0.90977620     0.83600
O112        O  0.96442372  0.57565134  0.07764642    -0.78500
C113        C  0.04968091  0.41217130  0.07140525     0.83700
C114        C  0.91276429  0.43743098  0.96133372     0.84000
O115        O  0.92154936  0.43570665  0.00306989    -0.80900
O116        O  0.03818289  0.04163002  0.40564426    -0.78400
C117        C  0.96753376  0.91514223  0.43498378     0.82600
O118        O  0.91876466  0.08007222  0.50521809    -0.79500
O119        O  0.96190083  0.94174704  0.57852983    -0.81000
O120        O  0.11274722  0.97683652  0.53952361    -0.80800
O121        O  0.09785043  0.04654616  0.45009294    -0.79400
Zn122      Zn  0.98939700  0.01419797  0.44335937     1.55700
O123        O  0.06383210  0.92096979  0.54566402    -0.80800
Cd124      Cd  0.07228030  0.02677710  0.51104662     1.59700
Cd125      Cd  0.96752095  0.04845222  0.54440153     1.59600
O126        O  0.07572854  0.08207287  0.55137483    -0.80800
O127        O  0.00759558  0.00989623  0.50541049    -1.91300
Cd128      Cd  0.00346689  0.94681193  0.52483931     1.59900
O129        O  0.00648019  0.09745373  0.57615308    -0.80800
O130        O  0.97769434  0.90689793  0.47539174    -0.79400
C131        C  0.91055089  0.07698071  0.46345536     0.83100
C132        C  0.07906455  0.05249892  0.41226746     0.82800
O133        O  0.97236550  0.95404273  0.41822029    -0.78400
C134        C  0.10328941  0.93666020  0.55081085     0.83600
O135        O  0.93457420  0.05304938  0.43753553    -0.78500
C136        C  0.04862962  0.10569702  0.57445847     0.83700
C137        C  0.93747540  0.96800925  0.60157167     0.84000
O138        O  0.93469489  0.00989908  0.59313919    -0.80900
O139        O  0.48150187  0.96914339  0.91044213    -0.78400
C140        C  0.55109196  0.09737766  0.94067781     0.82600
O141        O  0.60211173  0.93189821  0.01418144    -0.79500
O142        O  0.55265665  0.07320218  0.08690337    -0.81000
O143        O  0.40700745  0.02722514  0.04360322    -0.80800
O144        O  0.42477644  0.95825869  0.95728068    -0.79400
Zn145      Zn  0.53056507  0.99658588  0.95005358     1.55700
O146        O  0.45082030  0.08770436  0.04752348    -0.80800
Cd147      Cd  0.44973502  0.97913264  0.01785373     1.59700
Cd148      Cd  0.55340809  0.96482129  0.05256315     1.59600
O149        O  0.44677896  0.92610191  0.06103511    -0.80800
O150        O  0.51269566  0.00111248  0.01220163    -1.91300
Cd151      Cd  0.51397718  0.06557295  0.03036449     1.59900
O152        O  0.51629490  0.91688087  0.08787191    -0.80800
O153        O  0.53989341  0.10685417  0.98069235    -0.79400
C154        C  0.60956234  0.93393446  0.97223119     0.83100
C155        C  0.44144663  0.95589556  0.91818080     0.82800
O156        O  0.54801157  0.05737616  0.92573523    -0.78400
C157        C  0.41297145  0.06845734  0.05302068     0.83600
O158        O  0.58528201  0.95744223  0.94615686    -0.78500
C159        C  0.47459675  0.90656932  0.08672794     0.83700
C160        C  0.57864472  0.04804420  0.10955683     0.84000
O161        O  0.58452633  0.00667165  0.09985851    -0.80900
O162        O  0.03639616  0.97153790  0.11132510    -0.78400
C163        C  0.96339512  0.09813886  0.08491232     0.82600
O164        O  0.92087639  0.93213607  0.00830208    -0.79500
O165        O  0.96097749  0.07547109  0.94037850    -0.81000
O166        O  0.11168370  0.04150112  0.97951840    -0.80800
O167        O  0.09801672  0.97245753  0.06923929    -0.79400
Zn168      Zn  0.98775616  0.99966985  0.07338573     1.55700
O169        O  0.06258258  0.09730473  0.97484222    -0.80800
Cd170      Cd  0.07261865  0.99072920  0.00775044     1.59700
Cd171      Cd  0.96976045  0.96674240  0.97038355     1.59600
O172        O  0.07965979  0.93529632  0.96775130    -0.80800
O173        O  0.00728050  0.00589623  0.01181149    -1.91300
Cd174      Cd  0.00210543  0.06988653  0.99467816     1.59900
O175        O  0.01218229  0.91953217  0.93865937    -0.80800
O176        O  0.97437431  0.10799411  0.04504453    -0.79400
C177        C  0.91140167  0.93470335  0.04992695     0.83100
C178        C  0.07811769  0.96349798  0.10580427     0.82800
O179        O  0.96871373  0.05872476  0.10033139    -0.78400
C180        C  0.10198459  0.08169193  0.96871179     0.83600
O181        O  0.93365216  0.95959518  0.07656321    -0.78500
C182        C  0.05435084  0.91161528  0.94270125     0.83700
C183        C  0.93849371  0.04934243  0.91517079     0.84000
O184        O  0.93721145  0.00689525  0.92170106    -0.80900
O185        O  0.79380303  0.65326166  0.22972930    -0.78400
C186        C  0.71644383  0.68366724  0.35538061     0.82600
O187        O  0.67515913  0.75514313  0.18650914    -0.79500
O188        O  0.71241704  0.82934554  0.33058232    -0.81000
O189        O  0.86253303  0.78847213  0.29244987    -0.80800
O190        O  0.84998857  0.70159029  0.22220553    -0.79400
Zn191      Zn  0.74322255  0.69215354  0.25611863     1.55700
O192        O  0.81559644  0.79391490  0.35013344    -0.80800
Cd193      Cd  0.82329505  0.76153861  0.24259829     1.59700
Cd194      Cd  0.72092673  0.79585278  0.22183669     1.59600
O195        O  0.82928754  0.80274418  0.18846834    -0.80800
O196        O  0.75936606  0.75547229  0.26087436    -1.91300
Cd197      Cd  0.75414928  0.77439560  0.32478840     1.59900
O198        O  0.76111908  0.83045012  0.17452252    -0.80800
O199        O  0.72719669  0.72407485  0.36443893    -0.79400
C200        C  0.66819547  0.71282410  0.18840438     0.83100
C201        C  0.83400524  0.66226352  0.21769510     0.82800
O202        O  0.72221938  0.66752558  0.31619545    -0.78400
C203        C  0.85435217  0.79911564  0.33280684     0.83600
O204        O  0.69141716  0.68731110  0.21349969    -0.78500
C205        C  0.80313420  0.82737905  0.16558630     0.83700
C206        C  0.68708351  0.85116537  0.30408819     0.84000
O207        O  0.68516551  0.84228243  0.26221201    -0.80900
O208        O  0.80799476  0.29752356  0.67228854    -0.78400
C209        C  0.71207706  0.18540923  0.66434700     0.82600
O210        O  0.67985495  0.34240470  0.76146067    -0.79500
O211        O  0.68306891  0.18574796  0.80584700    -0.81000
O212        O  0.84594591  0.19917492  0.79494467    -0.80800
O213        O  0.85700024  0.29275898  0.72832842    -0.79400
Zn214      Zn  0.74907497  0.27507829  0.69749817     1.55700
O215        O  0.78843478  0.15182842  0.79060928    -0.80800
Cd216      Cd  0.81909074  0.26087342  0.77719643     1.59700
Cd217      Cd  0.71541868  0.29457783  0.80018388     1.59600
O218        O  0.82482648  0.29998811  0.83326973    -0.80800
O219        O  0.75456527  0.25624451  0.75945725    -1.91300
Cd220      Cd  0.73739032  0.19162039  0.76384089     1.59900
O221        O  0.75652148  0.32760817  0.84774532    -0.80800
O222        O  0.71729993  0.16676314  0.70228432    -0.79400
C223        C  0.68224063  0.35034911  0.71951008     0.83100
C224        C  0.84688463  0.30477824  0.68873181     0.82800
O225        O  0.72279118  0.22630857  0.65799802    -0.78400
C226        C  0.82921658  0.16017761  0.80093112     0.83600
O227        O  0.70721148  0.32721026  0.69383455    -0.78500
C228        C  0.79860495  0.32439703  0.85644476     0.83700
C229        C  0.66065526  0.21150809  0.83153678     0.84000
O230        O  0.66889936  0.25358261  0.83442980    -0.80900
O231        O  0.20472489  0.79346165  0.84670060    -0.78400
C232        C  0.30065058  0.68211251  0.85018999     0.82600
O233        O  0.33249634  0.84360493  0.75991499    -0.79500
O234        O  0.33524044  0.68940640  0.71170131    -0.81000
O235        O  0.16964379  0.69958516  0.72145681    -0.80800
O236        O  0.15504072  0.78770544  0.79173746    -0.79400
Zn237      Zn  0.26406013  0.77281518  0.82098858     1.55700
O238        O  0.22898361  0.65404142  0.72211941    -0.80800
Cd239      Cd  0.19492145  0.76107408  0.74127552     1.59700
Cd240      Cd  0.29836809  0.79682246  0.71932159     1.59600
O241        O  0.18895996  0.80331032  0.68763113    -0.80800
O242        O  0.25959149  0.75677878  0.75841046    -1.91300
Cd243      Cd  0.27875825  0.69320638  0.75102250     1.59900
O244        O  0.25718500  0.83126458  0.67328156    -0.80800
O245        O  0.29678771  0.66561624  0.81114032    -0.79400
C246        C  0.33033329  0.84929459  0.80220396     0.83100
C247        C  0.16497625  0.79887833  0.83163610     0.82800
O248        O  0.28941793  0.72250614  0.85858698    -0.78400
C249        C  0.18760096  0.66152273  0.71383201     0.83600
O250        O  0.30589930  0.82452623  0.82678833    -0.78500
C251        C  0.21492020  0.82882065  0.66531913     0.83700
C252        C  0.35736703  0.71664077  0.68751025     0.84000
O253        O  0.34697534  0.75822423  0.68481280    -0.80900
O254        O  0.19944404  0.22079209  0.66855288    -0.78400
C255        C  0.29592678  0.32814183  0.65845748     0.82600
O256        O  0.32626400  0.17121668  0.75846286    -0.79500
O257        O  0.33190797  0.32806064  0.79634798    -0.81000
O258        O  0.16691516  0.31768851  0.79194982    -0.80800
O259        O  0.14878389  0.23066729  0.72201434    -0.79400
Zn260      Zn  0.25963432  0.23912303  0.69301496     1.55700
O261        O  0.22698083  0.36196217  0.78627959    -0.80800
Cd262      Cd  0.18992272  0.25560461  0.77234431     1.59700
Cd263      Cd  0.29261402  0.22050002  0.79617036     1.59600
O264        O  0.18293683  0.21491818  0.82715392    -0.80800
O265        O  0.25465114  0.25825147  0.75455580    -1.91300
Cd266      Cd  0.27497230  0.32167481  0.75780962     1.59900
O267        O  0.25127829  0.18900720  0.84419147    -0.80800
O268        O  0.29053692  0.34686210  0.69627207    -0.79400
C269        C  0.32351190  0.16224162  0.71674700     0.83100
C270        C  0.15906260  0.21853014  0.68250655     0.82800
O271        O  0.28645843  0.28685016  0.65241375    -0.78400
C272        C  0.18629684  0.35541811  0.79751968     0.83600
O273        O  0.29926564  0.18535749  0.69037590    -0.78500
C274        C  0.20892404  0.19144971  0.85155473     0.83700
C275        C  0.35219276  0.30239721  0.82361571     0.84000
O276        O  0.34067674  0.26132966  0.82882814    -0.80900
O277        O  0.22886628  0.85930967  0.22780625    -0.78400
C278        C  0.30094757  0.82934131  0.35454846     0.82600
O279        O  0.34797905  0.75818420  0.18802509    -0.79500
O280        O  0.30733896  0.68481540  0.32663294    -0.81000
O281        O  0.15667831  0.72599661  0.29112453    -0.80800
O282        O  0.17127501  0.81223660  0.22184885    -0.79400
Zn283      Zn  0.27848522  0.82094862  0.25518115     1.55700
O284        O  0.20374348  0.71935700  0.34845288    -0.80800
Cd285      Cd  0.19709397  0.75216636  0.24178451     1.59700
Cd286      Cd  0.29939800  0.71863120  0.21934769     1.59600
O287        O  0.19144182  0.71113480  0.18766823    -0.80800
O288        O  0.26105831  0.75820711  0.25922501    -1.91300
Cd289      Cd  0.26514973  0.73882068  0.32255676     1.59900
O290        O  0.25980581  0.68595583  0.17031179    -0.80800
O291        O  0.29134166  0.78857563  0.36274634    -0.79400
C292        C  0.35698400  0.79992088  0.19185287     0.83100
C293        C  0.18827815  0.85101515  0.21656641     0.82800
O294        O  0.29585780  0.84589435  0.31566225    -0.78400
C295        C  0.16465887  0.71523644  0.33143229     0.83600
O296        O  0.33349674  0.82585183  0.21643677    -0.78500
C297        C  0.21743569  0.68808609  0.16299898     0.83700
C298        C  0.33187804  0.66249982  0.29977187     0.84000
O299        O  0.33347958  0.67096998  0.25799901    -0.80900
O300        O  0.78557636  0.36098225  0.29061124    -0.78400
C301        C  0.71213877  0.32901116  0.16494912     0.82600
O302        O  0.66997190  0.25796166  0.33500954    -0.79500
O303        O  0.70759518  0.18383954  0.19332838    -0.81000
O304        O  0.85779536  0.22455808  0.22918223    -0.80800
O305        O  0.84530264  0.31633762  0.29527879    -0.79400
Zn306      Zn  0.73619951  0.32122671  0.26449734     1.55700
O307        O  0.81004861  0.21777378  0.17217657    -0.80800
Cd308      Cd  0.81911577  0.25432210  0.27847179     1.59700
Cd309      Cd  0.71686416  0.21894218  0.30025358     1.59600
O310        O  0.82542894  0.21400249  0.33374033    -0.80800
O311        O  0.75466771  0.25888132  0.26054258    -1.91300
Cd312      Cd  0.74909706  0.23883216  0.19719326     1.59900
O313        O  0.75746319  0.18447268  0.34582156    -0.80800
O314        O  0.72248772  0.28839485  0.15643151    -0.79400
C315        C  0.66064759  0.29958677  0.33107909     0.83100
C316        C  0.82690486  0.35462253  0.30025542     0.82800
O317        O  0.71698174  0.34544320  0.20406611    -0.78400
C318        C  0.84894141  0.21253990  0.18925554     0.83600
O319        O  0.68277053  0.32530009  0.30519204    -0.78500
C320        C  0.79929525  0.18782716  0.35500523     0.83700
C321        C  0.68398267  0.16136668  0.22074149     0.84000
O322        O  0.68233886  0.17086796  0.26230832    -0.80900
O323        O  0.22509973  0.15474229  0.28320342    -0.78400
C324        C  0.29788304  0.18051250  0.15751864     0.82600
O325        O  0.33921927  0.25404601  0.32668354    -0.79500
O326        O  0.30426109  0.32506493  0.18230277    -0.81000
O327        O  0.15150564  0.28451136  0.21346816    -0.80800
O328        O  0.16510697  0.19902653  0.28624335    -0.79400
Zn329      Zn  0.27407826  0.19194255  0.25570425     1.55700
O330        O  0.20187840  0.29194243  0.15955480    -0.80800
Cd331      Cd  0.19050064  0.25941301  0.26521587     1.59700
Cd332      Cd  0.29306636  0.29449440  0.29096900     1.59600
O333        O  0.18276147  0.30142238  0.31876042    -0.80800
O334        O  0.25571861  0.25419036  0.25057404    -1.91300
Cd335      Cd  0.26178734  0.27163247  0.18701089     1.59900
O336        O  0.25045527  0.32775506  0.33765661    -0.80800
O337        O  0.28780120  0.22084743  0.14815876    -0.79400
C338        C  0.34816751  0.21210750  0.32362358     0.83100
C339        C  0.18425189  0.16163027  0.29377411     0.82800
O340        O  0.29239674  0.16501475  0.19672721    -0.78400
C341        C  0.16184925  0.29591572  0.17381427     0.83600
O342        O  0.32703081  0.18647430  0.29678839    -0.78500
C343        C  0.20783762  0.32520808  0.34388861     0.83700
C344        C  0.32776252  0.34880980  0.20889319     0.84000
O345        O  0.32851762  0.34167473  0.25111287    -0.80900
O346        O  0.81507229  0.72198888  0.84577054    -0.78400
C347        C  0.72175140  0.83060746  0.85700684     0.82600
O348        O  0.68612461  0.67384535  0.75827214    -0.79500
O349        O  0.68931732  0.83150954  0.71738026    -0.81000
O350        O  0.85028568  0.81503126  0.72069360    -0.80800
O351        O  0.86440311  0.72841706  0.79061021    -0.79400
Zn352      Zn  0.75500582  0.74022058  0.82205835     1.55700
O353        O  0.79510931  0.86415314  0.72974755    -0.80800
Cd354      Cd  0.82432159  0.75433434  0.74054605     1.59700
Cd355      Cd  0.72038099  0.72236318  0.72022537     1.59600
O356        O  0.82904604  0.71312331  0.68553354    -0.80800
O357        O  0.76057021  0.75957440  0.76041104    -1.91300
Cd358      Cd  0.74478374  0.82441090  0.75726571     1.59900
O359        O  0.75909081  0.68945271  0.67134438    -0.80800
O360        O  0.72787283  0.84918696  0.81925594    -0.79400
C361        C  0.68950774  0.66381322  0.79963947     0.83100
C362        C  0.85484316  0.71767772  0.83061346     0.82800
O363        O  0.72963215  0.78895110  0.86266890    -0.83200
C364        C  0.83493537  0.85465305  0.71723062     0.83600
O365        O  0.71495718  0.68576429  0.82610222    -0.78500
C366        C  0.80118793  0.69017997  0.66260553     0.83700
C367        C  0.66574857  0.80621011  0.69220261     0.84000
O368        O  0.67332247  0.76411856  0.68860131    -0.80900
C369        C  0.91396238  0.16027207  0.18435711    -0.26200
C370        C  0.88378192  0.18925976  0.16270691    -0.14300
C371        C  0.88433691  0.19187453  0.11575254     0.36300
C372        C  0.91294937  0.16386801  0.09124864    -0.25700
C373        C  0.94064469  0.13241728  0.11264822    -0.14900
C374        C  0.94228732  0.13159674  0.15979958     0.37400
N375        N  0.97192060  0.10112489  0.18251141    -0.89200
H376        H  0.91385778  0.15832694  0.22048639     0.18500
H377        H  0.91158201  0.16515012  0.05510218     0.18500
N378        N  0.85533001  0.22242234  0.09270908    -0.88200
H379        H  0.96868873  0.10448075  0.21711229     0.35900
H380        H  0.00491890  0.11039613  0.17467052     0.41000
H381        H  0.83482173  0.20384627  0.07111281     0.40600
H382        H  0.87535092  0.24367810  0.07334958     0.35500
C383        C  0.14992156  0.95056259  0.14648427    -0.26200
C384        C  0.10399962  0.94066235  0.14135568    -0.14300
C385        C  0.08513844  0.90477172  0.16563600     0.36300
C386        C  0.11320456  0.87793896  0.19208080    -0.25700
C387        C  0.15983370  0.88574582  0.19484999    -0.14900
C388        C  0.17814748  0.92355618  0.17289695     0.37400
N389        N  0.22544850  0.93334025  0.17552984    -0.89200
H390        H  0.16428127  0.97831354  0.12802861     0.18500
H391        H  0.09862161  0.84952706  0.20931308     0.18500
N392        N  0.03830257  0.89350990  0.16085596    -0.88200
H393        H  0.23283478  0.96337774  0.15910545     0.35900
H394        H  0.24245423  0.90810707  0.15811600     0.41000
H395        H  0.01972869  0.91891214  0.17632545     0.40600
H396        H  0.03073715  0.86398200  0.17807064     0.35500
C397        C  0.20087925  0.12147457  0.89719366    -0.26200
C398        C  0.18792946  0.16590610  0.88862770    -0.14300
C399        C  0.15105000  0.18398235  0.91215436     0.36300
C400        C  0.12561424  0.15663813  0.94051793    -0.25700
C401        C  0.13576759  0.11092912  0.94604213    -0.14900
C402        C  0.17506636  0.09378962  0.92546320     0.37400
N403        N  0.18781225  0.04786334  0.93126187    -0.89200
H404        H  0.22944378  0.10727433  0.87973486     0.18500
H405        H  0.09651740  0.17110140  0.95686397     0.18500
N406        N  0.13875307  0.23012537  0.90672883    -0.88200
H407        H  0.22040887  0.04722291  0.94442069     0.35900
H408        H  0.18857987  0.03253229  0.89983067     0.41000
H409        H  0.13974327  0.24555944  0.93811592     0.40600
H410        H  0.10558443  0.23131306  0.89511249     0.35500
C411        C  0.06459299  0.86828324  0.87177224    -0.26200
C412        C  0.07618699  0.87521059  0.91668825    -0.14300
C413        C  0.11302974  0.85148143  0.93466647     0.36300
C414        C  0.13980623  0.82466623  0.90686184    -0.25700
C415        C  0.13076301  0.82071672  0.86093747    -0.14900
C416        C  0.09157231  0.84147867  0.84372956     0.37400
N417        N  0.08016946  0.83751991  0.79740751    -0.89200
H418        H  0.03621025  0.88604955  0.85757687     0.18500
H419        H  0.16884853  0.80812159  0.92121140     0.18500
N420        N  0.12387934  0.85515043  0.98118677    -0.88200
H421        H  0.07934880  0.86971461  0.78370016     0.35900
H422        H  0.04780353  0.82389638  0.79513174     0.41000
H423        H  0.15675532  0.86733398  0.98399477     0.40600
H424        H  0.12305009  0.82296509  0.99497739     0.35500
C425        C  0.90400379  0.13461992  0.82841256    -0.26200
C426        C  0.85796167  0.12518316  0.82278664    -0.14300
C427        C  0.84061469  0.08521854  0.84232450     0.36300
C428        C  0.86846003  0.05837272  0.86929011    -0.25700
C429        C  0.91314810  0.07066703  0.87808242    -0.14900
C430        C  0.93157129  0.10809905  0.85574541     0.37400
N431        N  0.97807493  0.11995907  0.86216272    -0.89200
H432        H  0.91843409  0.16407833  0.81288810     0.18500
H433        H  0.85410272  0.02951560  0.88599405     0.18500
N434        N  0.79456742  0.07191667  0.83746715    -0.88200
H435        H  0.98630610  0.14873523  0.84401021     0.35900
H436        H  0.99757673  0.09386784  0.84915432     0.41000
H437        H  0.78747811  0.06790263  0.80349142     0.40600
H438        H  0.77396576  0.09689292  0.85094567     0.35500
C439        C  0.88366500  0.86013385  0.07291913    -0.26200
C440        C  0.87581788  0.90626716  0.06968230    -0.14300
C441        C  0.83936383  0.92538825  0.09320640     0.36300
C442        C  0.81317711  0.89833537  0.12183337    -0.25700
C443        C  0.82365684  0.85286997  0.12811487    -0.14900
C444        C  0.85827380  0.83327810  0.10209428     0.37400
N445        N  0.86872856  0.78642515  0.10680645    -0.89200
H446        H  0.91183514  0.84561004  0.05507237     0.18500
H447        H  0.78660567  0.91342539  0.14151037     0.18500
N448        N  0.83042282  0.97258313  0.08932484    -0.88200
H449        H  0.89546993  0.77740789  0.08598271     0.35900
H450        H  0.84073228  0.76816383  0.09592738     0.41000
H451        H  0.80281185  0.98157658  0.10902680     0.40600
H452        H  0.82126252  0.97876400  0.05620273     0.35500
C453        C  0.60979570  0.12851474  0.20253510    -0.26200
C454        C  0.65670190  0.12439001  0.20232150    -0.14300
C455        C  0.67682230  0.08916904  0.17773660     0.36300
C456        C  0.65011273  0.06140576  0.15076505    -0.25700
C457        C  0.60372419  0.06890538  0.14694544    -0.14900
C458        C  0.58300061  0.10116966  0.17485895     0.37400
N459        N  0.53503009  0.10714694  0.17360227    -0.89200
H460        H  0.59434691  0.15519191  0.22179980     0.18500
H461        H  0.66619008  0.03619169  0.13010964     0.18500
N462        N  0.72441331  0.08163866  0.17872217    -0.88200
H463        H  0.52518022  0.13242089  0.19581757     0.35900
H464        H  0.52032741  0.07742243  0.18494739     0.41000
H465        H  0.73415362  0.07704417  0.21194451     0.40600
H466        H  0.74082893  0.10999447  0.16633072     0.35500
C467        C  0.31752323  0.10469479  0.12866468    -0.26200
C468        C  0.31928149  0.15150347  0.12330406    -0.14300
C469        C  0.34668527  0.16974866  0.08927842     0.36300
C470        C  0.37490458  0.14121941  0.06475961    -0.25700
C471        C  0.37605605  0.09494387  0.07290295    -0.14900
C472        C  0.34568402  0.07612837  0.10391833     0.37400
N473        N  0.34539080  0.02863052  0.11227866    -0.89200
H474        H  0.29591411  0.09049974  0.15409810     0.18500
H475        H  0.39757337  0.15547971  0.04027694     0.18500
N476        N  0.34824009  0.21733703  0.08166014    -0.88200
H477        H  0.32034756  0.02033671  0.13533897     0.35900
H478        H  0.37607214  0.02035219  0.12721623     0.41000
H479        H  0.31724189  0.22666518  0.06802067     0.40600
H480        H  0.37244955  0.22526331  0.05764541     0.35500
C481        C  0.41925949  0.85516541  0.18719750    -0.26200
C482        C  0.39514892  0.81994134  0.16702523    -0.14300
C483        C  0.40447483  0.80841828  0.12221712     0.36300
C484        C  0.43455208  0.83510450  0.09756761    -0.25700
C485        C  0.45607233  0.87233819  0.11694284    -0.14900
C486        C  0.44960455  0.88147023  0.16289920     0.37400
N487        N  0.47084040  0.91857021  0.18545606    -0.89200
H488        H  0.41289743  0.86373607  0.22182938     0.18500
H489        H  0.43920041  0.82849950  0.06225506     0.18500
N490        N  0.38082966  0.77213354  0.10085046    -0.88200
H491        H  0.44567805  0.94144193  0.19426484     0.35900
H492        H  0.49336019  0.93557478  0.16494610     0.41000
H493        H  0.39193642  0.74231467  0.11544840     0.40600
H494        H  0.38951735  0.77005030  0.06708366     0.35500
C495        C  0.67424947  0.92972766  0.92072959    -0.26200
C496        C  0.64657819  0.90810939  0.95180966    -0.14300
C497        C  0.65015526  0.86135680  0.95719410     0.36300
C498        C  0.67790254  0.83649212  0.92821680    -0.25700
C499        C  0.70217583  0.85779221  0.89391521    -0.14900
C500        C  0.70244010  0.90517258  0.89231438     0.37400
N501        N  0.73039798  0.92856089  0.86113141    -0.89200
H502        H  0.67254693  0.96587187  0.91716211     0.18500
H503        H  0.67792336  0.80023756  0.93069575     0.18500
N504        N  0.62328024  0.83871384  0.98977811    -0.88200
H505        H  0.75156902  0.95005322  0.87913887     0.35900
H506        H  0.70973867  0.94823065  0.84080518     0.41000
H507        H  0.64490357  0.82103544  0.01092183     0.40600
H508        H  0.60290997  0.81540846  0.97316507     0.35500
C509        C  0.59978462  0.15535562  0.83896175    -0.26200
C510        C  0.62475415  0.19018591  0.85867257    -0.14300
C511        C  0.61902540  0.19929543  0.90462198     0.36300
C512        C  0.59189975  0.17045342  0.93053823    -0.25700
C513        C  0.57057939  0.13277345  0.91137549    -0.14900
C514        C  0.57228815  0.12706673  0.86453092     0.37400
N515        N  0.54701374  0.09187281  0.84312965    -0.89200
H516        H  0.60300644  0.14919622  0.80341551     0.18500
H517        H  0.58984192  0.17580903  0.96627358     0.18500
N518        N  0.64257467  0.23604127  0.92529476    -0.88200
H519        H  0.55234918  0.09202018  0.80861515     0.35900
H520        H  0.51289860  0.09880919  0.84798074     0.41000
H521        H  0.67699405  0.22890639  0.92396998     0.40600
H522        H  0.63418500  0.23847526  0.95909587     0.35500
C523        C  0.36644405  0.93299489  0.88965644    -0.26200
C524        C  0.41299869  0.93604309  0.88209319    -0.14300
C525        C  0.43098420  0.91642074  0.84276407     0.36300
C526        C  0.40265856  0.89074195  0.81458656    -0.25700
C527        C  0.35703096  0.88457108  0.82493456    -0.14900
C528        C  0.33858817  0.90762373  0.86169081     0.37400
N529        N  0.29149202  0.90438323  0.87142925    -0.89200
H530        H  0.35154228  0.94900030  0.91861164     0.18500
H531        H  0.41679034  0.87332273  0.78607226     0.18500
N532        N  0.47808921  0.92036770  0.83279016    -0.88200
H533        H  0.27804970  0.93677791  0.87148071     0.35900
H534        H  0.28791628  0.89118869  0.90355521     0.41000
H535        H  0.48440619  0.95398116  0.82526200     0.40600
H536        H  0.48607889  0.90208984  0.80398306     0.35500
C537        C  0.08560263  0.17889755  0.67128254    -0.26200
C538        C  0.12423905  0.19882289  0.65268917    -0.14300
C539        C  0.13166795  0.19502648  0.60621114     0.36300
C540        C  0.10396536  0.16684780  0.58073694    -0.25700
C541        C  0.06843572  0.14303272  0.60028164    -0.14900
C542        C  0.05754154  0.15085088  0.64545064     0.37400
N543        N  0.01994117  0.12828839  0.66556918    -0.89200
H544        H  0.07903121  0.18254785  0.70668026     0.18500
H545        H  0.11137362  0.16184110  0.54563281     0.18500
N546        N  0.16821693  0.21854101  0.58524089    -0.88200
H547        H  0.01628423  0.13820226  0.69890271     0.35900
H548        H  0.02708533  0.09396898  0.66596776     0.41000
H549        H  0.16172343  0.25288205  0.58827973     0.40600
H550        H  0.16934746  0.21149801  0.55103383     0.35500
C551        C  0.15254595  0.07319647  0.37879711    -0.26200
C552        C  0.10535852  0.07431760  0.37619077    -0.14300
C553        C  0.08492287  0.10017218  0.34199971     0.36300
C554        C  0.11174076  0.12587769  0.31354640    -0.25700
C555        C  0.15871053  0.12684003  0.31807535    -0.14900
C556        C  0.17930691  0.09904674  0.35045993     0.37400
N557        N  0.22699905  0.09836460  0.35749378    -0.89200
H558        H  0.16894499  0.05339671  0.40437519     0.18500
H559        H  0.09546295  0.14686128  0.28883061     0.18500
N560        N  0.03713114  0.10320730  0.33663541    -0.88200
H561        H  0.23798074  0.13071388  0.36486712     0.35900
H562        H  0.24265142  0.08701226  0.32816157     0.41000
H563        H  0.02303298  0.11532639  0.36628837     0.40600
H564        H  0.02438736  0.07129960  0.32957975     0.35500
C565        C  0.84195050  0.92616292  0.67428642    -0.26200
C566        C  0.86314166  0.88954964  0.69536038    -0.14300
C567        C  0.91047487  0.88508190  0.69125438     0.36300
C568        C  0.93418115  0.91404659  0.66342040    -0.25700
C569        C  0.91229040  0.94744908  0.63877032    -0.14900
C570        C  0.86602752  0.95501206  0.64566314     0.37400
N571        N  0.84322370  0.99011376  0.62187295    -0.89200
H572        H  0.80595382  0.93057638  0.67771345     0.18500
H573        H  0.97000881  0.90876623  0.65910706     0.18500
N574        N  0.93568460  0.85123158  0.71417113    -0.88200
H575        H  0.80933592  0.99143670  0.63109863     0.35900
H576        H  0.84387399  0.98193274  0.58790429     0.41000
H577        H  0.92752217  0.81970176  0.70121398     0.40600
H578        H  0.92791176  0.85259434  0.74819108     0.35500
C579        C  0.81528939  0.11280173  0.38711850    -0.26200
C580        C  0.81950319  0.15955446  0.39006637    -0.14300
C581        C  0.84843335  0.17848318  0.42238008     0.36300
C582        C  0.87497622  0.15023893  0.44908732    -0.25700
C583        C  0.87382449  0.10354938  0.44339775    -0.14900
C584        C  0.84213369  0.08443367  0.41334012     0.37400
N585        N  0.83710288  0.03672812  0.40764773    -0.89200
H586        H  0.79291272  0.09816639  0.36243617     0.18500
H587        H  0.89897232  0.16486251  0.47221901     0.18500
N588        N  0.85202868  0.22641085  0.42656802    -0.88200
H589        H  0.80376060  0.02862183  0.41525656     0.35900
H590        H  0.85669712  0.01901575  0.43051927     0.41000
H591        H  0.82075680  0.23844278  0.43706601     0.40600
H592        H  0.87516012  0.23501643  0.45151733     0.35500
C593        C  0.15949933  0.83559830  0.60415017    -0.26200
C594        C  0.19368952  0.85589008  0.62949148    -0.14300
C595        C  0.20195783  0.90226997  0.62396918     0.36300
C596        C  0.17408438  0.92762713  0.59571682    -0.25700
C597        C  0.13769522  0.90778058  0.57284690    -0.14900
C598        C  0.13178452  0.86070532  0.57566337     0.37400
N599        N  0.09690346  0.83856620  0.55054421    -0.89200
H600        H  0.15344866  0.79991567  0.60769253     0.18500
H601        H  0.17936989  0.96353812  0.59377854     0.18500
N602        N  0.23640077  0.92504269  0.64867831    -0.88200
H603        H  0.09657348  0.80412463  0.55708995     0.35900
H604        H  0.10463725  0.84209358  0.51668889     0.41000
H605        H  0.26740154  0.91079974  0.64040344     0.40600
H606        H  0.23058217  0.92022422  0.68275945     0.35500
C607        C  0.91880214  0.84811558  0.43026988    -0.26200
C608        C  0.94601236  0.87954697  0.40820890    -0.14300
C609        C  0.94785722  0.87928618  0.36122738     0.36300
C610        C  0.92011889  0.84992047  0.33715558    -0.25700
C611        C  0.88981032  0.82142735  0.35923626    -0.14900
C612        C  0.89044701  0.81917759  0.40629025     0.37400
N613        N  0.86138908  0.78855637  0.42954543    -0.89200
H614        H  0.91760438  0.84785812  0.46643507     0.18500
H615        H  0.92031791  0.85155536  0.30100125     0.18500
N616        N  0.97702027  0.90941440  0.33782453    -0.88200
H617        H  0.86556779  0.79164986  0.46409586     0.35900
H618        H  0.87139764  0.75601337  0.42107948     0.41000
H619        H  0.95728469  0.92926899  0.31679067     0.40600
H620        H  0.99859900  0.89031222  0.31783955     0.35500
C621        C  0.13128757  0.65495909  0.07634491    -0.26200
C622        C  0.14069502  0.60921229  0.07006070    -0.14300
C623        C  0.18132294  0.59168341  0.08794079     0.36300
C624        C  0.20834662  0.61894554  0.11587194    -0.25700
C625        C  0.19599362  0.66330684  0.12555352    -0.14900
C626        C  0.15853229  0.68214889  0.10343557     0.37400
N627        N  0.14739395  0.72869106  0.10987080    -0.89200
H628        H  0.10143458  0.66940622  0.06142513     0.18500
H629        H  0.23761876  0.60475697  0.13212779     0.18500
N630        N  0.19402512  0.54591223  0.07961139    -0.88200
H631        H  0.11861358  0.73726300  0.09172293     0.35900
H632        H  0.17381304  0.74776192  0.09682680     0.41000
H633        H  0.20146367  0.54313267  0.04560280     0.40600
H634        H  0.22367607  0.53799761  0.09668106     0.35500
C635        C  0.08853859  0.33566836  0.16436847    -0.26200
C636        C  0.12740220  0.31716814  0.14462567    -0.14300
C637        C  0.13416664  0.32334189  0.09812052     0.36300
C638        C  0.10528206  0.35117850  0.07426572    -0.25700
C639        C  0.06974681  0.37376919  0.09524940    -0.14900
C640        C  0.05950295  0.36389429  0.14007431     0.37400
N641        N  0.02178264  0.38488059  0.16160500    -0.89200
H642        H  0.08213662  0.33035558  0.19955950     0.18500
H643        H  0.11241218  0.35738400  0.03930940     0.18500
N644        N  0.17043056  0.30291114  0.07401735    -0.88200
H645        H  0.02015018  0.37550791  0.19516068     0.35900
H646        H  0.99259555  0.37232440  0.14651151     0.41000
H647        H  0.17022107  0.26847527  0.08005353     0.40600
H648        H  0.20100870  0.31693437  0.08442560     0.35500
C649        C  0.15479334  0.44712480  0.87908214    -0.26200
C650        C  0.10778130  0.44741821  0.87448067    -0.14300
C651        C  0.08772356  0.42195152  0.83994482     0.36300
C652        C  0.11456002  0.39433638  0.81308789    -0.25700
C653        C  0.16114704  0.39158842  0.81993222    -0.14900
C654        C  0.18159602  0.41953846  0.85245025     0.37400
N655        N  0.22894116  0.41846391  0.86148887    -0.89200
H656        H  0.17078646  0.46677589  0.90516831     0.18500
H657        H  0.09854668  0.37334335  0.78806423     0.18500
N658        N  0.03993344  0.42170683  0.83370964    -0.88200
H659        H  0.24625017  0.42842521  0.83282731     0.35900
H660        H  0.23817933  0.38569245  0.86977943     0.41000
H661        H  0.02842433  0.38879003  0.83756691     0.40600
H662        H  0.03315427  0.43164686  0.80092655     0.35500
C663        C  0.84199071  0.59038902  0.17415893    -0.26200
C664        C  0.86232058  0.62767539  0.19508541    -0.14300
C665        C  0.90904147  0.63438630  0.18930224     0.36300
C666        C  0.93327619  0.60666786  0.16028706    -0.25700
C667        C  0.91240857  0.57165903  0.13669746    -0.14900
C668        C  0.86661163  0.56216255  0.14507612     0.37400
N669        N  0.84453542  0.52602771  0.12190731    -0.89200
H670        H  0.80628792  0.58462530  0.17852963     0.18500
H671        H  0.96865461  0.61370965  0.15495091     0.18500
N672        N  0.93210655  0.67009172  0.21191140    -0.88200
H673        H  0.81037621  0.52500174  0.13017094     0.35900
H674        H  0.85841676  0.49605079  0.13352440     0.41000
H675        H  0.94658859  0.69093865  0.18784462     0.40600
H676        H  0.95805674  0.65612326  0.23092153     0.35500
C677        C  0.95743800  0.65266646  0.87006853    -0.26200
C678        C  0.94332772  0.64061208  0.91299037    -0.14300
C679        C  0.90383357  0.65917139  0.93075144     0.36300
C680        C  0.87733335  0.68718947  0.90431744    -0.25700
C681        C  0.88932342  0.69691960  0.85994062    -0.14900
C682        C  0.93135645  0.68161253  0.84355967     0.37400
N683        N  0.94669445  0.69390710  0.79975836    -0.89200
H684        H  0.98828982  0.63856413  0.85688105     0.18500
H685        H  0.84587669  0.69927790  0.91804175     0.18500
N686        N  0.88877251  0.64691313  0.97450569    -0.88200
H687        H  0.97750076  0.67865300  0.79262171     0.35900
H688        H  0.95276509  0.72849519  0.80017438     0.41000
H689        H  0.85712572  0.63186212  0.97147780     0.40600
H690        H  0.88509386  0.67627345  0.99333740     0.35500
C691        C  0.81290005  0.39793533  0.89243209    -0.26200
C692        C  0.81944592  0.35134506  0.89266751    -0.14300
C693        C  0.85261877  0.33293945  0.92152956     0.36300
C694        C  0.88102412  0.36185128  0.94575054    -0.25700
C695        C  0.87705723  0.40854840  0.94215238    -0.14900
C696        C  0.84160135  0.42661280  0.91635389     0.37400
N697        N  0.83448702  0.47401820  0.91320549    -0.89200
H698        H  0.78756633  0.41243051  0.87078801     0.18500
H699        H  0.90777212  0.34767564  0.96588738     0.18500
N700        N  0.85927445  0.28534438  0.92615000    -0.88200
H701        H  0.86279102  0.48879318  0.89870925     0.35900
H702        H  0.83065649  0.48686711  0.94548739     0.41000
H703        H  0.83423598  0.26723978  0.90955402     0.40600
H704        H  0.85532194  0.27750654  0.95993489     0.35500
C705        C  0.40480232  0.16365795  0.42627785    -0.26200
C706        C  0.43746423  0.13536741  0.40718306    -0.14300
C707        C  0.44372026  0.13622177  0.36041848     0.36300
C708        C  0.41579188  0.16370122  0.33384635    -0.25700
C709        C  0.38233090  0.19096161  0.35301128    -0.14900
C710        C  0.37741072  0.19122743  0.39989309     0.37400
N711        N  0.34279098  0.21675433  0.42137629    -0.89200
H712        H  0.39921395  0.16294391  0.46203501     0.18500
H713        H  0.41903743  0.16268410  0.29781318     0.18500
N714        N  0.47596389  0.10688448  0.33977645    -0.88200
H715        H  0.31165605  0.20676734  0.40839359     0.35900
H716        H  0.34774207  0.25063209  0.41399955     0.41000
H717        H  0.50797315  0.11783895  0.34935933     0.40600
H718        H  0.47460681  0.10980952  0.30501304     0.35500
C719        C  0.58485738  0.91041583  0.35144301    -0.26200
C720        C  0.60493495  0.94236381  0.37987558    -0.14300
C721        C  0.65199065  0.94846841  0.37812506     0.36300
C722        C  0.67815953  0.91996452  0.35083169    -0.25700
C723        C  0.65819053  0.88648352  0.32416558    -0.14900
C724        C  0.61092687  0.88268045  0.32337385     0.37400
N725        N  0.58973292  0.84896542  0.29608106    -0.89200
H726        H  0.54872515  0.90571517  0.35267009     0.18500
H727        H  0.71450777  0.92269710  0.35161805     0.18500
N728        N  0.67332170  0.98123371  0.40640721    -0.88200
H729        H  0.55473388  0.85073818  0.29908628     0.35900
H730        H  0.59925742  0.81759651  0.30839809     0.41000
H731        H  0.66316195  0.01290052  0.39542034     0.40600
H732        H  0.70825707  0.98013675  0.40252675     0.35500
C733        C  0.66090860  0.18176467  0.59827684    -0.26200
C734        C  0.69029182  0.15958324  0.62775966    -0.14300
C735        C  0.69419757  0.11243709  0.62515071     0.36300
C736        C  0.66579510  0.08833109  0.59619753    -0.25700
C737        C  0.63402494  0.11027418  0.56933158    -0.14900
C738        C  0.63252593  0.15758676  0.56947049     0.37400
N739        N  0.60035066  0.18169756  0.54323183    -0.89200
H740        H  0.65761243  0.21793950  0.59983633     0.18500
H741        H  0.66701947  0.05198523  0.59599730     0.18500
N742        N  0.72605357  0.08911676  0.65279102    -0.88200
H743        H  0.56811924  0.17101224  0.55213517     0.35900
H744        H  0.60564880  0.17373783  0.50960006     0.41000
H745        H  0.75828010  0.09938218  0.64306698     0.40600
H746        H  0.72440641  0.05459050  0.64707371     0.35500
C747        C  0.60721999  0.86469303  0.68572108    -0.26200
C748        C  0.62938904  0.82799799  0.66625147    -0.14300
C749        C  0.62016050  0.81675006  0.62135715     0.36300
C750        C  0.59165463  0.84467295  0.59604322    -0.25700
C751        C  0.57252622  0.88372807  0.61460875    -0.14900
C752        C  0.57859651  0.89233704  0.66073235     0.37400
N753        N  0.55660434  0.92968238  0.68195950    -0.89200
H754        H  0.61334819  0.87265990  0.72054819     0.18500
H755        H  0.58658529  0.83727110  0.56095909     0.18500
N756        N  0.64151403  0.77862926  0.60092259    -0.88200
H757        H  0.56534211  0.93169223  0.71574687     0.35900
H758        H  0.52198089  0.92357419  0.68082581     0.41000
H759        H  0.67603934  0.78522181  0.59948382     0.40600
H760        H  0.63063217  0.77470921  0.56792690     0.35500
C761        C  0.39578616  0.12097174  0.70605835    -0.26200
C762        C  0.34971936  0.12512946  0.69673876    -0.14300
C763        C  0.33044234  0.09849825  0.66269563     0.36300
C764        C  0.35826989  0.07191108  0.63567573    -0.25700
C765        C  0.40517410  0.07132814  0.64166954    -0.14900
C766        C  0.42373472  0.09442651  0.67872480     0.37400
N767        N  0.47113247  0.09335531  0.68722448    -0.89200
H768        H  0.41076377  0.14099633  0.73244370     0.18500
H769        H  0.34331762  0.05316245  0.60837714     0.18500
N770        N  0.28276223  0.10002610  0.65456958    -0.88200
H771        H  0.47606257  0.08129752  0.71961710     0.35900
H772        H  0.48332650  0.12624444  0.68602662     0.41000
H773        H  0.26671601  0.08735439  0.68293368     0.40600
H774        H  0.27394979  0.07893191  0.62801873     0.35500
C775        C  0.34662036  0.83599946  0.42395361    -0.26200
C776        C  0.32140020  0.85715898  0.39028456    -0.14300
C777        C  0.32002721  0.90441512  0.38897841     0.36300
C778        C  0.34678178  0.92941194  0.41846285    -0.25700
C779        C  0.37553757  0.90808527  0.44891734    -0.14900
C780        C  0.37385459  0.86101269  0.45325261     0.37400
N781        N  0.40075001  0.83880256  0.48643707    -0.89200
H782        H  0.34716559  0.79971412  0.42584840     0.18500
H783        H  0.34721890  0.96563241  0.41537310     0.18500
N784        N  0.29236713  0.92721921  0.35710550    -0.88200
H785        H  0.39585546  0.80406758  0.48500364     0.35900
H786        H  0.38929775  0.84930472  0.51774842     0.41000
H787        H  0.31312026  0.94750256  0.33749209     0.40600
H788        H  0.27025458  0.94810099  0.37458475     0.35500
C789        C  0.34499215  0.67617278  0.92058433    -0.26200
C790        C  0.32193402  0.65457048  0.88554382    -0.14300
C791        C  0.32448967  0.60734582  0.88179304     0.36300
C792        C  0.35340412  0.58357038  0.91017900    -0.25700
C793        C  0.37995438  0.60578960  0.94212624    -0.14900
C794        C  0.37417598  0.65240956  0.94858654     0.37400
N795        N  0.39735550  0.67650076  0.98311738    -0.89200
H796        H  0.34257620  0.71222775  0.92461830     0.18500
H797        H  0.35703966  0.54766888  0.90562908     0.18500
N798        N  0.29883837  0.58380412  0.84835657    -0.88200
H799        H  0.43187510  0.67526699  0.97703722     0.35900
H800        H  0.39065752  0.66090513  0.01365735     0.41000
H801        H  0.26481245  0.58804227  0.85602460     0.40600
H802        H  0.30518248  0.54932479  0.84965497     0.35500
C803        C  0.36356427  0.43821681  0.12734467    -0.26200
C804        C  0.41041410  0.43930995  0.13350076    -0.14300
C805        C  0.42912009  0.41481728  0.16974509     0.36300
C806        C  0.40110801  0.38831443  0.19685165    -0.25700
C807        C  0.35482958  0.38501562  0.18829019    -0.14900
C808        C  0.33590806  0.41137349  0.15407266     0.37400
N809        N  0.28845439  0.41003533  0.14560658    -0.89200
H810        H  0.34824179  0.45710190  0.10045623     0.18500
H811        H  0.41608128  0.36782507  0.22273839     0.18500
N812        N  0.47650985  0.41385142  0.17833519    -0.88200
H813        H  0.28348353  0.39944658  0.11261844     0.35900
H814        H  0.27591384  0.44263899  0.14860217     0.41000
H815        H  0.48738277  0.44643731  0.18547634     0.40600
H816        H  0.49300153  0.40205628  0.14980975     0.35500
C817        C  0.63342222  0.69827398  0.11381372    -0.26200
C818        C  0.63314129  0.69154075  0.16020833    -0.14300
C819        C  0.60236704  0.66049479  0.17850722     0.36300
C820        C  0.57498721  0.63494489  0.15028569    -0.25700
C821        C  0.57762716  0.63872872  0.10358094    -0.14900
C822        C  0.60602185  0.67215613  0.08515809     0.37400
N823        N  0.60909752  0.67773523  0.03759829    -0.89200
H824        H  0.65685028  0.72222804  0.09972274     0.18500
H825        H  0.55268463  0.61041011  0.16517332     0.18500
N826        N  0.59821584  0.65398604  0.22573709    -0.88200
H827        H  0.63332454  0.70187677  0.02964948     0.35900
H828        H  0.57830714  0.69054658  0.02660409     0.41000
H829        H  0.59202630  0.68509265  0.24077380     0.40600
H830        H  0.62825925  0.64101999  0.23826669     0.35500
C831        C  0.66553951  0.33647616  0.09571176    -0.26200
C832        C  0.69166496  0.35706912  0.12927941    -0.14300
C833        C  0.69432465  0.40429871  0.13047834     0.36300
C834        C  0.66809264  0.42984667  0.10105233    -0.25700
C835        C  0.63944970  0.40929030  0.06973850    -0.14900
C836        C  0.63928923  0.36212936  0.06596760     0.37400
N837        N  0.60984836  0.34040750  0.03450912    -0.89200
H838        H  0.66347757  0.30021156  0.09431641     0.18500
H839        H  0.66867759  0.46610572  0.10396400     0.18500
N840        N  0.72311032  0.42654333  0.16194926    -0.88200
H841        H  0.61213939  0.30552952  0.03743650     0.35900
H842        H  0.62128932  0.34830132  0.00249881     0.41000
H843        H  0.70330922  0.44768636  0.18169416     0.40600
H844        H  0.74575248  0.44650801  0.14412886     0.35500
C845        C  0.65406971  0.56483800  0.87084610    -0.26200
C846        C  0.60744451  0.57184197  0.87327350    -0.14300
C847        C  0.58765339  0.60444750  0.84530650     0.36300
C848        C  0.61482690  0.63147552  0.81796636    -0.25700
C849        C  0.66174871  0.62742330  0.81890754    -0.14900
C850        C  0.68137641  0.59284471  0.84442048     0.37400
N851        N  0.72918864  0.58701530  0.84454101    -0.89200
H852        H  0.66974237  0.53982982  0.89193682     0.18500
H853        H  0.59936869  0.65786654  0.79843271     0.18500
N854        N  0.53994988  0.61119145  0.84571777    -0.88200
H855        H  0.73612384  0.55429366  0.83388389     0.35900
H856        H  0.74058177  0.59029991  0.87741806     0.41000
H857        H  0.52792867  0.60652059  0.81318774     0.40600
H858        H  0.53373257  0.64446061  0.85492012     0.35500
C859        C  0.41571894  0.34896790  0.92322846    -0.26200
C860        C  0.44644886  0.37819402  0.90258831    -0.14300
C861        C  0.44986333  0.37768406  0.85552144     0.36300
C862        C  0.42085181  0.35023702  0.83032847    -0.25700
C863        C  0.38863928  0.32260962  0.85103724    -0.14900
C864        C  0.38702473  0.32100887  0.89805619     0.37400
N865        N  0.35374905  0.29391845  0.92003378    -0.89200
H866        H  0.41264338  0.34954040  0.95928984     0.18500
H867        H  0.42206160  0.35202309  0.79419949     0.18500
N868        N  0.48021240  0.40679611  0.83237042    -0.88200
H869        H  0.35529885  0.29850771  0.95460196     0.35900
H870        H  0.36192254  0.26030476  0.91409745     0.41000
H871        H  0.51297083  0.39942804  0.84278466     0.40600
H872        H  0.47291176  0.43992092  0.84122372     0.35500
C873        C  0.11954908  0.36011380  0.42864534    -0.26200
C874        C  0.13144103  0.40482840  0.43780052    -0.14300
C875        C  0.17316177  0.42088304  0.42121243     0.36300
C876        C  0.19954701  0.39359184  0.39286689    -0.25700
C877        C  0.18520422  0.35038637  0.38064620    -0.14900
C878        C  0.14585548  0.33298601  0.40066924     0.37400
N879        N  0.13203739  0.28765610  0.39224290    -0.89200
H880        H  0.08867588  0.34625955  0.44200205     0.18500
H881        H  0.23008922  0.40719988  0.37854772     0.18500
N882        N  0.18834394  0.46529741  0.43166463    -0.88200
H883        H  0.09974504  0.28831670  0.37835140     0.35900
H884        H  0.13019955  0.27095542  0.42283573     0.41000
H885        H  0.19258939  0.48275817  0.40171160     0.40600
H886        H  0.21975233  0.46280161  0.44717771     0.35500
C887        C  0.84986546  0.59039342  0.60266709    -0.26200
C888        C  0.87509545  0.61110994  0.56878819    -0.14300
C889        C  0.87005388  0.65759954  0.56152181     0.36300
C890        C  0.84246989  0.68277346  0.59062099    -0.25700
C891        C  0.81971412  0.66219685  0.62627493    -0.14900
C892        C  0.82230564  0.61540829  0.63147375     0.37400
N893        N  0.80002455  0.59403278  0.66832237    -0.89200
H894        H  0.85365728  0.55467847  0.60823392     0.18500
H895        H  0.84065774  0.71889521  0.58705510     0.18500
N896        N  0.89490634  0.67946898  0.52664805    -0.88200
H897        H  0.80688169  0.55964986  0.66859563     0.35900
H898        H  0.76537444  0.59723954  0.66323313     0.41000
H899        H  0.92909547  0.67724513  0.53462994     0.40600
H900        H  0.88711668  0.71363931  0.52566777     0.35500
C901        C  0.18133228  0.59599854  0.66259288    -0.26200
C902        C  0.16022752  0.62618574  0.69192933    -0.14300
C903        C  0.11288770  0.62528949  0.69593504     0.36300
C904        C  0.08759923  0.59777770  0.66715384    -0.25700
C905        C  0.10861861  0.57104443  0.63457897    -0.14900
C906        C  0.15598278  0.56858576  0.63389433     0.37400
N907        N  0.17853202  0.53895562  0.60356706    -0.89200
H908        H  0.21768183  0.59547081  0.65994553     0.18500
H909        H  0.05121403  0.59911964  0.66866360     0.18500
N910        N  0.09062122  0.65312194  0.72837366    -0.88200
H911        H  0.19858171  0.51715935  0.62228194     0.35900
H912        H  0.19972111  0.55815388  0.58334943     0.41000
H913        H  0.10061365  0.64215983  0.76002540     0.40600
H914        H  0.05577087  0.64878182  0.72670214     0.35500
C915        C  0.88436987  0.32098067  0.61597677    -0.26200
C916        C  0.88000560  0.33009174  0.66176753    -0.14300
C917        C  0.90408658  0.36625723  0.68043854     0.36300
C918        C  0.93105698  0.39324246  0.65305298    -0.25700
C919        C  0.93476083  0.38511932  0.60682437    -0.14900
C920        C  0.91197859  0.34758178  0.58836823     0.37400
N921        N  0.91530818  0.33746728  0.54152908    -0.89200
H922        H  0.86572112  0.29320691  0.60160645     0.18500
H923        H  0.94809568  0.42169277  0.66807304     0.18500
N924        N  0.89920103  0.37736729  0.72677623    -0.88200
H925        H  0.89461031  0.31045154  0.53311258     0.35900
H926        H  0.94834284  0.32685440  0.53547273     0.41000
H927        H  0.88672772  0.41007826  0.72905437     0.40600
H928        H  0.93111843  0.37689657  0.74148554     0.35500
C929        C  0.09912147  0.67018171  0.42989894    -0.26200
C930        C  0.07016919  0.63979565  0.40842430    -0.14300
C931        C  0.06769749  0.63920117  0.36145051     0.36300
C932        C  0.09656817  0.66709948  0.33679474    -0.25700
C933        C  0.12838209  0.69466445  0.35829995    -0.14900
C934        C  0.12800907  0.69799570  0.40532342     0.37400
N935        N  0.15775206  0.72865596  0.42791669    -0.89200
H936        H  0.10051151  0.67077250  0.46607288     0.18500
H937        H  0.09649042  0.66477361  0.30067595     0.18500
N938        N  0.03820411  0.60820694  0.33899398    -0.88200
H939        H  0.15336817  0.72675601  0.46250418     0.35900
H940        H  0.14851194  0.76114211  0.41857685     0.41000
H941        H  0.04948882  0.57575816  0.34596398     0.40600
H942        H  0.04041971  0.61212904  0.30437392     0.35500
C943        C  0.92622772  0.42122555  0.34450825    -0.26200
C944        C  0.90510647  0.44867615  0.37630045    -0.14300
C945        C  0.85766954  0.45015512  0.37775469     0.36300
C946        C  0.83247108  0.42177607  0.34988519    -0.25700
C947        C  0.85370453  0.39144555  0.32069725    -0.14900
C948        C  0.90100805  0.39307967  0.31617789     0.37400
N949        N  0.92329119  0.36529345  0.28371806    -0.89200
H950        H  0.96264852  0.42052208  0.34299191     0.18500
H951        H  0.79620413  0.42120049  0.35346156     0.18500
N952        N  0.83434194  0.47767708  0.40942341    -0.88200
H953        H  0.95805079  0.37041318  0.28477979     0.35900
H954        H  0.91256473  0.37568030  0.25209525     0.41000
H955        H  0.84321259  0.51114014  0.40371849     0.40600
H956        H  0.84484404  0.46885941  0.44152245     0.35500
C957        C  0.33750096  0.59741956  0.34968336    -0.26200
C958        C  0.35888150  0.62601681  0.31930765    -0.14300
C959        C  0.40605856  0.62419023  0.31464085     0.36300
C960        C  0.43113241  0.59649705  0.34355744    -0.25700
C961        C  0.40972057  0.57093649  0.37682888    -0.14900
C962        C  0.36234732  0.56979451  0.37814251     0.37400
N963        N  0.33925143  0.54140531  0.40911470    -0.89200
H964        H  0.30117781  0.59814162  0.35286986     0.18500
H965        H  0.46753672  0.59716310  0.34200840     0.18500
N966        N  0.42845477  0.65292210  0.28324315    -0.88200
H967        H  0.31818725  0.51994602  0.39092831     0.35900
H968        H  0.31904223  0.56159630  0.42942593     0.41000
H969        H  0.41910139  0.64242860  0.25121233     0.40600
H970        H  0.46332488  0.64879407  0.28532663     0.35500
C971        C  0.60851345  0.38778680  0.70414139    -0.26200
C972        C  0.65533197  0.38649975  0.69835994    -0.14300
C973        C  0.67539302  0.41506179  0.66640639     0.36300
C974        C  0.64812777  0.44202216  0.63895294    -0.25700
C975        C  0.60113544  0.44034017  0.64198880    -0.14900
C976        C  0.58124860  0.41383484  0.67590532     0.37400
N977        N  0.53348831  0.41231668  0.68204583    -0.89200
H978        H  0.59278091  0.36609954  0.72856329     0.18500
H979        H  0.66352229  0.46231213  0.61316402     0.18500
N980        N  0.72343135  0.41519246  0.66083271    -0.88200
H981        H  0.51856787  0.39939429  0.65314137     0.35900
H982        H  0.52196409  0.44508651  0.68693481     0.41000
H983        H  0.73760801  0.42730928  0.69048499     0.40600
H984        H  0.73288768  0.43746455  0.63561719     0.35500
C985        C  0.37290592  0.36419698  0.56438168    -0.26200
C986        C  0.37201199  0.41109339  0.56968288    -0.14300
C987        C  0.33979820  0.43017217  0.59893869     0.36300
C988        C  0.31241050  0.40218187  0.62455873    -0.25700
C989        C  0.31632429  0.35527215  0.62231913    -0.14900
C990        C  0.34536052  0.33619460  0.59029290     0.37400
N991        N  0.34930615  0.28849456  0.58597634    -0.89200
H992        H  0.39678089  0.34898682  0.54160072     0.18500
H993        H  0.28969371  0.41741654  0.64847792     0.18500
N994        N  0.33612336  0.47759203  0.60596216    -0.88200
H995        H  0.38268792  0.27965554  0.59240310     0.35900
H996        H  0.34199245  0.27985452  0.55285663     0.41000
H997        H  0.32748710  0.49278784  0.57578359     0.40600
H998        H  0.36717944  0.48997524  0.61697315     0.35500
C999        C  0.64696504  0.64550627  0.45604032    -0.26200
C1000       C  0.64176825  0.59973637  0.44641991    -0.14300
C1001       C  0.66672666  0.58068933  0.41100124     0.36300
C1002       C  0.69277686  0.60843689  0.38333438    -0.25700
C1003       C  0.69492943  0.65501913  0.39028079    -0.14900
C1004       C  0.67314820  0.67331418  0.42829614     0.37400
N1005       N  0.67529103  0.72042342  0.43759911    -0.89200
H1006       H  0.62810867  0.66042605  0.48323138     0.18500
H1007       H  0.71028375  0.59365950  0.35521008     0.18500
N1008       N  0.66423247  0.53325707  0.40234890    -0.88200
H1009       H  0.68850224  0.72464533  0.46973013     0.35900
H1010       H  0.64251364  0.73308531  0.43750464     0.41000
H1011       H  0.67791371  0.51679428  0.43005441     0.40600
H1012       H  0.68412234  0.52454954  0.37496141     0.35500
C1013       C  0.39489541  0.70294597  0.61443661    -0.26200
C1014       C  0.39489957  0.69767667  0.66093228    -0.14300
C1015       C  0.42578874  0.66754284  0.68065432     0.36300
C1016       C  0.45294686  0.64023065  0.65324994    -0.25700
C1017       C  0.44916536  0.64202657  0.60662770    -0.14900
C1018       C  0.42137673  0.67499675  0.58718048     0.37400
N1019       N  0.41879155  0.67900666  0.53959616    -0.89200
H1020       H  0.37164251  0.72620985  0.59899396     0.18500
H1021       H  0.47450816  0.61516157  0.66829247     0.18500
N1022       N  0.42784227  0.66337893  0.72843521    -0.88200
H1023       H  0.42787963  0.71177616  0.53109862     0.35900
H1024       H  0.38531352  0.67409841  0.52997781     0.41000
H1025       H  0.43893731  0.69416293  0.74127014     0.40600
H1026       H  0.45181138  0.63952508  0.73764849     0.35500
C1027       C  0.62121606  0.31175388  0.40365475    -0.26200
C1028       C  0.62396982  0.31987152  0.35760500    -0.14300
C1029       C  0.59517336  0.35181100  0.33805043     0.36300
C1030       C  0.56757511  0.37820438  0.36543924    -0.25700
C1031       C  0.56798783  0.37348299  0.41213265    -0.14900
C1032       C  0.59338080  0.33822310  0.43128587     0.37400
N1033       N  0.59331664  0.33128928  0.47876732    -0.89200
H1034       H  0.64296073  0.28671239  0.41847427     0.18500
H1035       H  0.54713715  0.40412420  0.35028523     0.18500
N1036       N  0.59524733  0.35829522  0.29046807    -0.88200
H1037       H  0.61561324  0.30568176  0.48747033     0.35900
H1038       H  0.56121982  0.31993178  0.48753905     0.41000
H1039       H  0.57243463  0.38339962  0.28138598     0.40600
H1040       H  0.58378388  0.32859529  0.27574013     0.35500
loop_ 
_geom_bond_atom_site_label_1 
_geom_bond_atom_site_label_2 
_geom_bond_distance 
_geom_bond_site_symmetry_2 
_ccdc_geom_bond_type 
O1           C17   1.275       .  A
O1           Zn7   2.019       .  S
C2           O18   1.275       .  A
C2           O15   1.273       .  A
C2         C1031   1.488       .  S
O3           C16   1.281       .  A
O3          Cd10   2.111       .  S
O4           C22   1.272       .  A
O4          Cd13   2.040       .  S
O5           C19   1.274       .  A
O5           Cd9   2.064       .  S
O6           C17   1.274       .  A
O6           Cd9   2.071       .  S
Zn7          O18   2.040       .  S
Zn7          O20   2.017       .  S
Zn7          O12   1.953       .  S
O8           C19   1.273       .  A
O8          Cd13   2.073       .  S
Cd9          O11   2.063       .  S
Cd9          O12   1.993       .  S
Cd10         O14   2.112       .  S
Cd10         O23   2.120       .  S
Cd10         O12   2.028       .  S
O11          C21   1.274       .  A
O12         Cd13   1.992       .  S
Cd13         O15   2.051       .  S
O14          C21   1.280       .  A
C16          O20   1.274       .  A
C16         C975   1.485       .  S
C17         C986   1.484       .  S
C19         C961   1.483       .  S
C21        C1017   1.482       .  S
C22          O23   1.281       .  A
C22        C1000   1.484       .  S
O24          C40   1.279       .  A
O24         Zn30   2.043   1_455  S
C25          O41   1.278       .  A
C25          O38   1.273       .  A
C25         C919   1.494       .  S
O26          C39   1.278       .  A
O26         Cd33   2.097       .  S
O27          C45   1.271       .  A
O27         Cd36   2.043       .  S
O28          C42   1.274       .  A
O28         Cd32   2.069       .  S
O29          C40   1.274       .  A
O29         Cd32   2.080       .  S
Zn30         O41   2.051       .  S
Zn30         O43   2.009       .  S
Zn30         O35   1.943   1_655  S
O31          C42   1.274       .  A
O31         Cd36   2.063   1_455  S
Cd32         O34   2.049       .  S
Cd32         O35   1.996       .  S
Cd33         O37   2.096   1_655  S
Cd33         O46   2.115       .  S
Cd33         O35   2.033   1_655  S
O34          C44   1.273       .  A
O35         Cd36   1.987   1_455  S
Cd36         O38   2.051       .  S
O37          C44   1.278       .  A
C39          O43   1.274       .  A
C39         C944   1.477       .  S
C40         C874   1.500       .  S
C42         C905   1.482       .  S
C44         C930   1.472       .  S
C45          O46   1.279       .  A
C45         C888   1.483       .  S
O47          C63   1.275       .  A
O47         Zn53   2.028       .  S
C48          O64   1.276       .  A
C48          O61   1.275       .  A
C48         C821   1.493       .  S
O49          C62   1.281       .  A
O49         Cd56   2.116       .  S
O50          C68   1.272       .  A
O50         Cd59   2.043       .  S
O51          C65   1.275       .  A
O51         Cd55   2.066   1_554  S
O52          C63   1.273       .  A
O52         Cd55   2.056       .  S
Zn53         O64   2.051   1_556  S
Zn53         O66   2.008       .  S
Zn53         O58   1.952   1_556  S
O54          C65   1.274       .  A
O54         Cd59   2.084       .  S
Cd55         O57   2.051       .  S
Cd55         O58   1.991   1_556  S
Cd56         O60   2.126       .  S
Cd56         O69   2.117   1_556  S
Cd56         O58   2.033   1_556  S
O57          C67   1.272       .  A
O58         Cd59   1.995       .  S
Cd59         O61   2.062       .  S
O60          C67   1.281       .  A
C62          O66   1.274       .  A
C62         C846   1.486       .  S
C63         C793   1.478       .  S
C65         C804   1.493       .  S
C67         C860   1.486       .  S
C68          O69   1.282       .  A
C68         C835   1.480       .  S
O70          C86   1.275       .  A
O70         Zn76   2.042       .  S
C71          O87   1.274       .  A
C71          O84   1.275       .  A
C71         C751   1.491       .  S
O72          C85   1.280       .  A
O72         Cd79   2.111       .  S
O73          C91   1.275       .  A
O73         Cd82   2.068       .  S
O74          C88   1.273       .  A
O74         Cd78   2.059   1_565  S
O75          C86   1.274       .  A
O75         Cd78   2.059       .  S
Zn76         O87   2.014   1_545  S
Zn76         O89   1.989       .  S
Zn76         O81   1.944       .  S
O77          C88   1.274       .  A
O77         Cd82   2.063       .  S
Cd78         O80   2.058       .  S
Cd78         O81   1.991       .  S
Cd79         O83   2.123       .  S
Cd79         O92   2.121       .  S
Cd79         O81   2.029       .  S
O80          C90   1.273       .  A
O81         Cd82   2.003   1_545  S
Cd82         O84   2.081       .  S
O83          C90   1.282       .  A
C85          O89   1.272       .  A
C85         C737   1.476       .  S
C86         C765   1.491       .  S
C88         C779   1.475       .  S
C90         C706   1.490       .  S
C91          O92   1.282   1_565  A
C91         C720   1.489       .  S
O93         C109   1.276       .  A
O93         Zn99   2.029       .  S
C94         O110   1.273       .  A
C94         O107   1.272       .  A
C94         C678   1.465       .  S
O95         C108   1.278       .  A
O95        Cd102   2.103       .  S
O96         C114   1.274       .  A
O96        Cd105   2.067       .  S
O97         C111   1.273       .  A
O97        Cd101   2.052   1_556  S
O98         C109   1.272       .  A
O98        Cd101   2.074       .  S
Zn99        O110   2.009   1_454  S
Zn99        O112   1.996   1_455  S
Zn99        O104   1.929       .  S
O100        C111   1.272       .  A
O100       Cd105   2.060   1_455  S
Cd101       O103   2.036       .  S
Cd101       O104   1.989       .  S
Cd102       O106   2.093   1_655  S
Cd102       O115   2.099       .  S
Cd102       O104   2.026   1_655  S
O103        C113   1.273       .  A
O104       Cd105   1.995   1_454  S
Cd105       O107   2.054       .  S
O106        C113   1.278       .  A
C108        O112   1.274       .  A
C108        C667   1.485       .  S
C109        C622   1.496       .  S
C111        C650   1.478       .  S
C113        C639   1.477       .  S
C114        O115   1.278   1_556  A
C114        C695   1.480       .  S
O116        C132   1.273       .  A
O116       Zn122   2.014   1_455  S
C117        O133   1.273       .  A
C117        O130   1.271       .  A
C117        C608   1.473       .  S
O118        C131   1.277       .  A
O118       Cd125   2.091       .  S
O119        C137   1.271       .  A
O119       Cd128   2.035   1_655  S
O120        C134   1.277       .  A
O120       Cd124   2.097   1_565  S
O121        C132   1.275       .  A
O121       Cd124   2.065       .  S
Zn122       O133   2.007   1_545  S
Zn122       O135   2.008       .  S
Zn122       O127   1.939   1_655  S
O123        C134   1.271       .  A
O123       Cd128   2.051       .  S
Cd124       O126   2.043       .  S
Cd124       O127   1.994       .  S
Cd125       O129   2.089   1_655  S
Cd125       O138   2.101       .  S
Cd125       O127   2.025   1_655  S
O126        C136   1.274       .  A
O127       Cd128   1.974   1_545  S
Cd128       O130   2.044   1_455  S
O129        C136   1.278       .  A
C131        O135   1.273       .  A
C131        C583   1.477       .  S
C132        C552   1.485       .  S
C134        C597   1.492       .  S
C136        C541   1.475       .  S
C137        O138   1.277   1_565  A
C137        C569   1.477       .  S
O139        C155   1.276       .  A
O139       Zn145   2.047       .  S
C140        O156   1.276       .  A
C140        O153   1.275       .  A
C140        C513   1.491       .  S
O141        C154   1.277   1_554  A
O141       Cd148   2.093       .  S
O142        C160   1.274       .  A
O142       Cd151   2.057       .  S
O143        C157   1.272       .  A
O143       Cd147   2.065   1_545  S
O144        C155   1.274       .  A
O144       Cd147   2.053   1_556  S
Zn145       O156   2.022   1_565  S
Zn145       O158   2.006       .  S
Zn145       O150   1.940   1_566  S
O146        C157   1.274       .  A
O146       Cd151   2.056       .  S
Cd147       O149   2.047       .  S
Cd147       O150   1.990   1_565  S
Cd148       O152   2.094       .  S
Cd148       O161   2.098   1_565  S
Cd148       O150   2.025   1_565  S
O149        C159   1.272       .  A
O150       Cd151   1.996       .  S
Cd151       O153   2.081   1_554  S
O152        C159   1.277       .  A
C154        O158   1.275       .  A
C154        C496   1.476       .  S
C155        C524   1.492       .  S
C157        C471   1.478       .  S
C159        C485   1.473       .  S
C160        O161   1.278       .  A
C160        C457   1.479       .  S
O162        C178   1.274       .  A
O162       Zn168   2.022   1_455  S
C163        O179   1.274       .  A
C163        O176   1.273       .  A
C163        C373   1.480       .  S
O164        C177   1.280       .  A
O164       Cd171   2.115   1_554  S
O165        C183   1.272       .  A
O165       Cd174   2.040   1_655  S
O166        C180   1.275       .  A
O166       Cd170   2.088   1_546  S
O167        C178   1.274       .  A
O167       Cd170   2.064       .  S
Zn168       O179   2.016   1_565  S
Zn168       O181   2.005       .  S
Zn168       O173   1.943   1_665  S
O169        C180   1.274       .  A
O169       Cd174   2.063       .  S
Cd170       O172   2.049   1_554  S
Cd170       O173   1.999   1_565  S
Cd171       O175   2.115   1_655  S
Cd171       O184   2.122   1_565  S
Cd171       O173   2.032   1_666  S
O172        C182   1.273       .  A
O173       Cd174   1.983   1_554  S
Cd174       O176   2.059   1_456  S
O175        C182   1.282       .  A
C177        O181   1.272       .  A
C177        C440   1.480       .  S
C178        C384   1.481       .  S
C180        C401   1.494       .  S
C182        C412   1.484       .  S
C183        O184   1.281       .  A
C183        C429   1.486       .  S
O185        C201   1.277       .  A
O185       Zn191   2.057       .  S
C186        O202   1.279       .  A
C186        O199   1.274       .  A
C186       C1003   1.495       .  S
O187        C200   1.280       .  A
O187       Cd194   2.104       .  S
O188        C206   1.274       .  A
O188       Cd197   2.063       .  S
O189        C203   1.272       .  A
O189       Cd193   2.054       .  S
O190        C201   1.271       .  A
O190       Cd193   2.048       .  S
Zn191       O202   2.043       .  S
Zn191       O204   2.004       .  S
Zn191       O196   1.952       .  S
O192        C203   1.274       .  A
O192       Cd197   2.060       .  S
Cd193       O195   2.044       .  S
Cd193       O196   1.987       .  S
Cd194       O198   2.123       .  S
Cd194       O207   2.122       .  S
Cd194       O196   2.032       .  S
O195        C205   1.271       .  A
O196       Cd197   2.000       .  S
Cd197       O199   2.077       .  S
O198        C205   1.281       .  A
C200        O204   1.274       .  A
C200        C818   1.481       .  S
C201        C664   1.493       .  S
C203        C611   1.474       .  S
C205        C443   1.488       .  S
C206        O207   1.282       .  A
C206        C723   1.486       .  S
O208        C224   1.274       .  A
O208       Zn214   2.022       .  S
C209        O225   1.275       .  A
C209        O222   1.276       .  A
C209        C734   1.485       .  S
O210        C223   1.281       .  A
O210       Cd217   2.122       .  S
O211        C229   1.275       .  A
O211       Cd220   2.056       .  S
O212        C226   1.277       .  A
O212       Cd216   2.076       .  S
O213        C224   1.275       .  A
O213       Cd216   2.080       .  S
Zn214       O225   2.027       .  S
Zn214       O227   1.995       .  S
Zn214       O219   1.947       .  S
O215        C226   1.275       .  A
O215       Cd220   2.088       .  S
Cd216       O218   2.048       .  S
Cd216       O219   1.994       .  S
Cd217       O221   2.116       .  S
Cd217       O230   2.113       .  S
Cd217       O219   2.036       .  S
O218        C228   1.272       .  A
O219       Cd220   1.997       .  S
Cd220       O222   2.072       .  S
O221        C228   1.281       .  A
C223        O227   1.272       .  A
C223        C972   1.486       .  S
C224        C916   1.482       .  S
C226        C426   1.500       .  S
C228        C692   1.482       .  S
C229        O230   1.280       .  A
C229        C510   1.486       .  S
O231        C247   1.275       .  A
O231       Zn237   2.021       .  S
C232        O248   1.274       .  A
C232        O245   1.272       .  A
C232        C790   1.483       .  S
O233        C246   1.279       .  A
O233       Cd240   2.106       .  S
O234        C252   1.273       .  A
O234       Cd243   2.055       .  S
O235        C249   1.275       .  A
O235       Cd239   2.065       .  S
O236        C247   1.274       .  A
O236       Cd239   2.078       .  S
Zn237       O248   2.024       .  S
Zn237       O250   1.987       .  S
Zn237       O242   1.937       .  S
O238        C249   1.275       .  A
O238       Cd243   2.071       .  S
Cd239       O241   2.051       .  S
Cd239       O242   1.994       .  S
Cd240       O244   2.112       .  S
Cd240       O253   2.117       .  S
Cd240       O242   2.033       .  S
O241        C251   1.274       .  A
O242       Cd243   1.991       .  S
Cd243       O245   2.052       .  S
O244        C251   1.281       .  A
C246        O250   1.272       .  A
C246        C527   1.480       .  S
C247        C415   1.493       .  S
C249        C902   1.481       .  S
C251        C594   1.485       .  S
C252        O253   1.281       .  A
C252       C1014   1.483       .  S
O254        C270   1.273       .  A
O254       Zn260   2.007       .  S
C255        O271   1.275       .  A
C255        O268   1.271       .  A
C255        C989   1.483       .  S
O256        C269   1.279       .  A
O256       Cd263   2.105       .  S
O257        C275   1.272       .  A
O257       Cd266   2.056       .  S
O258        C272   1.274       .  A
O258       Cd262   2.058       .  S
O259        C270   1.274       .  A
O259       Cd262   2.075       .  S
Zn260       O271   2.037       .  S
Zn260       O273   1.992       .  S
Zn260       O265   1.933       .  S
O261        C272   1.271       .  A
O261       Cd266   2.051       .  S
Cd262       O264   2.054       .  S
Cd262       O265   1.999       .  S
Cd263       O267   2.114       .  S
Cd263       O276   2.113       .  S
Cd263       O265   2.025       .  S
O264        C274   1.274       .  A
O265       Cd266   1.986       .  S
Cd266       O268   2.045       .  S
O267        C274   1.281       .  A
C269        O273   1.273       .  A
C269        C762   1.480       .  S
C270        C538   1.486       .  S
C272        C653   1.473       .  S
C274        C398   1.486       .  S
C275        O276   1.281       .  A
C275        C863   1.485       .  S
O277        C293   1.276       .  A
O277       Zn283   2.040       .  S
C278        O294   1.275       .  A
C278        O291   1.273       .  A
C278        C776   1.481       .  S
O279        C292   1.277       .  A
O279       Cd286   2.089       .  S
O280        C298   1.273       .  A
O280       Cd289   2.046       .  S
O281        C295   1.272       .  A
O281       Cd285   2.060       .  S
O282        C293   1.272       .  A
O282       Cd285   2.040       .  S
Zn283       O294   2.022       .  S
Zn283       O296   2.012       .  S
Zn283       O288   1.944       .  S
O284        C295   1.274       .  A
O284       Cd289   2.068       .  S
Cd285       O287   2.034       .  S
Cd285       O288   1.979       .  S
Cd286       O290   2.115       .  S
Cd286       O299   2.096       .  S
Cd286       O288   2.029       .  S
O287        C297   1.271       .  A
O288       Cd289   1.988       .  S
Cd289       O291   2.059       .  S
O290        C297   1.280       .  A
C292        O296   1.275       .  A
C292        C482   1.483       .  S
C293        C387   1.488       .  S
C295        C933   1.480       .  S
C297        C625   1.484       .  S
C298        O299   1.278       .  A
C298        C958   1.474       .  S
O300        C316   1.276       .  A
O300       Zn306   2.039       .  S
C301        O317   1.276       .  A
C301        O314   1.275       .  A
C301        C832   1.488       .  S
O302        C315   1.277       .  A
O302       Cd309   2.093       .  S
O303        C321   1.272       .  A
O303       Cd312   2.054       .  S
O304        C318   1.274       .  A
O304       Cd308   2.070       .  S
O305        C316   1.274       .  A
O305       Cd308   2.066       .  S
Zn306       O317   2.032       .  S
Zn306       O319   2.007       .  S
Zn306       O311   1.942       .  S
O307        C318   1.274       .  A
O307       Cd312   2.060       .  S
Cd308       O310   2.057       .  S
Cd308       O311   1.994       .  S
Cd309       O313   2.093       .  S
Cd309       O322   2.093       .  S
Cd309       O311   2.026       .  S
O310        C320   1.273       .  A
O311       Cd312   1.994       .  S
Cd312       O314   2.076       .  S
O313        C320   1.277       .  A
C315        O319   1.275       .  A
C315       C1028   1.479       .  S
C316        C947   1.486       .  S
C318        C370   1.479       .  S
C320        C580   1.476       .  S
C321        O322   1.277       .  A
C321        C454   1.473       .  S
O323        C339   1.272       .  A
O323       Zn329   2.008       .  S
C324        O340   1.274       .  A
C324        O337   1.271       .  A
C324        C468   1.483       .  S
O325        C338   1.281       .  A
O325       Cd332   2.118       .  S
O326        C344   1.272       .  A
O326       Cd335   2.037       .  S
O327        C341   1.274       .  A
O327       Cd331   2.076       .  S
O328        C339   1.273       .  A
O328       Cd331   2.052       .  S
Zn329       O340   2.014       .  S
Zn329       O342   2.004       .  S
Zn329       O334   1.941       .  S
O330        C341   1.270       .  A
O330       Cd335   2.053       .  S
Cd331       O333   2.045       .  S
Cd331       O334   1.995       .  S
Cd332       O336   2.131       .  S
Cd332       O345   2.127       .  S
Cd332       O334   2.031       .  S
O333        C343   1.272       .  A
O334       Cd335   1.983       .  S
Cd335       O337   2.059       .  S
O336        C343   1.283       .  A
C338        O342   1.272       .  A
C338        C709   1.485       .  S
C339        C555   1.478       .  S
C341        C636   1.489       .  S
C343        C877   1.492       .  S
C344        O345   1.283       .  A
C344        C807   1.482       .  S
O346        C362   1.274       .  A
O346       Zn352   1.997       .  S
C347        O363   1.276       .  A
C347        O360   1.273       .  A
C347        C499   1.488       .  S
O348        C361   1.279       .  A
O348       Cd355   2.106       .  S
O349        C367   1.274       .  A
O349       Cd358   2.046       .  S
O350        C364   1.271       .  A
O350       Cd354   2.056       .  S
O351        C362   1.273       .  A
O351       Cd354   2.066       .  S
Zn352       O363   2.038       .  S
Zn352       O365   2.016       .  S
Zn352       O357   1.943       .  S
O353        C364   1.274       .  A
O353       Cd358   2.080       .  S
Cd354       O356   2.057       .  S
Cd354       O357   1.993       .  S
Cd355       O359   2.104       .  S
Cd355       O368   2.100       .  S
Cd355       O357   2.023       .  S
O356        C366   1.273       .  A
O357       Cd358   1.992       .  S
Cd358       O360   2.059       .  S
O359        C366   1.279       .  A
C361        O365   1.274       .  A
C361        C849   1.481       .  S
C362        C681   1.486       .  S
C364        C566   1.489       .  S
C366        C891   1.476       .  S
C367        O368   1.279       .  A
C367        C748   1.482       .  S
C369        C370   1.405       .  A
C369        C374   1.407       .  A
C369        H376   1.084       .  S
C370        C371   1.409       .  A
C371        C372   1.399       .  A
C371        N378   1.433       .  S
C372        C373   1.404       .  A
C372        H377   1.084       .  S
C373        C374   1.413       .  A
C374        N375   1.438       .  S
N375        H379   1.045       .  S
N375        H380   1.046   1_655  S
N378        H381   1.045       .  S
N378        H382   1.046       .  S
C383        C384   1.405       .  A
C383        C388   1.408       .  A
C383        H390   1.084       .  S
C384        C385   1.411       .  A
C385        C386   1.402       .  A
C385        N392   1.439       .  S
C386        C387   1.408       .  A
C386        H391   1.083       .  S
C387        C388   1.415       .  A
C388        N389   1.438       .  S
N389        H393   1.046       .  S
N389        H394   1.045       .  S
N392        H395   1.045       .  S
N392        H396   1.046       .  S
C397        C398   1.404       .  A
C397        C402   1.411       .  A
C397        H404   1.084       .  S
C398        C399   1.411       .  A
C399        C400   1.401       .  A
C399        N406   1.433       .  S
C400        C401   1.406       .  A
C400        H405   1.084       .  S
C401        C402   1.417       .  A
C402        N403   1.432       .  S
N403        H407   1.046       .  S
N403        H408   1.045       .  S
N406        H409   1.046       .  S
N406        H410   1.046       .  S
C411        C412   1.403       .  A
C411        C416   1.409       .  A
C411        H418   1.084       .  S
C412        C413   1.411       .  A
C413        C414   1.402       .  A
C413        N420   1.433       .  S
C414        C415   1.405       .  A
C414        H419   1.084       .  S
C415        C416   1.417       .  A
C416        N417   1.432       .  S
N417        H421   1.045       .  S
N417        H422   1.046       .  S
N420        H423   1.045       .  S
N420        H424   1.046       .  S
C425        C426   1.407       .  A
C425        C430   1.404       .  A
C425        H432   1.083       .  S
C426        C427   1.425       .  A
C427        C428   1.408       .  A
C427        N434   1.432       .  S
C428        C429   1.402       .  A
C428        H433   1.084       .  S
C429        C430   1.413       .  A
C430        N431   1.439       .  S
N431        H435   1.046       .  S
N431        H436   1.045       .  S
N434        H437   1.045       .  S
N434        H438   1.045       .  S
C439        C440   1.399       .  A
C439        C444   1.407       .  A
C439        H446   1.084       .  S
C440        C441   1.413       .  A
C441        C442   1.413       .  A
C441        N448   1.437       .  S
C442        C443   1.404       .  A
C442        H447   1.083       .  S
C443        C444   1.417       .  A
C444        N445   1.438       .  S
N445        H449   1.046       .  S
N445        H450   1.045       .  S
N448        H451   1.046       .  S
N448        H452   1.045       .  S
C453        C454   1.400       .  A
C453        C458   1.407       .  A
C453        H460   1.084       .  S
C454        C455   1.414       .  A
C455        C456   1.400       .  A
C455        N462   1.433       .  S
C456        C457   1.402       .  A
C456        H461   1.084       .  S
C457        C458   1.415       .  A
C458        N459   1.438       .  S
N459        H463   1.046       .  S
N459        H464   1.045       .  S
N462        H465   1.045       .  S
N462        H466   1.045       .  S
C467        C468   1.406       .  A
C467        C472   1.405       .  A
C467        H474   1.084       .  S
C468        C469   1.415       .  A
C469        C470   1.402       .  A
C469        N476   1.438       .  S
C470        C471   1.402       .  A
C470        H475   1.084       .  S
C471        C472   1.413       .  A
C472        N473   1.439       .  S
N473        H477   1.046       .  S
N473        H478   1.045       .  S
N476        H479   1.046       .  S
N476        H480   1.045       .  S
C481        C482   1.405       .  A
C481        C486   1.401       .  A
C481        H488   1.084       .  S
C482        C483   1.412       .  A
C483        C484   1.407       .  A
C483        N490   1.438       .  S
C484        C485   1.404       .  A
C484        H489   1.084       .  S
C485        C486   1.415       .  A
C486        N487   1.439       .  S
N487        H491   1.046       .  S
N487        H492   1.041       .  S
N490        H493   1.045       .  S
N490        H494   1.046       .  S
C495        C496   1.401       .  A
C495        C500   1.401       .  A
C495        H502   1.084       .  S
C496        C497   1.408       .  A
C497        C498   1.408       .  A
C497        N504   1.432       .  S
C498        C499   1.408       .  A
C498        H503   1.083       .  S
C499        C500   1.413       .  A
C500        N501   1.433       .  S
N501        H505   1.046       .  S
N501        H506   1.046       .  S
N504        H507   1.046   1_556  S
N504        H508   1.046       .  S
C509        C510   1.404       .  A
C509        C514   1.403       .  A
C509        H516   1.084       .  S
C510        C511   1.412       .  A
C511        C512   1.413       .  A
C511        N518   1.437       .  S
C512        C513   1.409       .  A
C512        H517   1.083       .  S
C513        C514   1.414       .  A
C514        N515   1.438       .  S
N515        H519   1.046       .  S
N515        H520   1.046       .  S
N518        H521   1.046       .  S
N518        H522   1.045       .  S
C523        C524   1.406       .  A
C523        C528   1.397       .  A
C523        H530   1.084       .  S
C524        C525   1.419       .  A
C525        C526   1.414       .  A
C525        N532   1.437       .  S
C526        C527   1.404       .  A
C526        H531   1.084       .  S
C527        C528   1.408       .  A
C528        N529   1.434       .  S
N529        H533   1.045       .  S
N529        H534   1.046       .  S
N532        H535   1.045       .  S
N532        H536   1.047       .  S
C537        C538   1.409       .  A
C537        C542   1.409       .  A
C537        H544   1.083       .  S
C538        C539   1.414       .  A
C539        C540   1.400       .  A
C539        N546   1.438       .  S
C540        C541   1.402       .  A
C540        H545   1.084       .  S
C541        C542   1.410       .  A
C542        N543   1.438       .  S
N543        H547   1.046       .  S
N543        H548   1.045       .  S
N546        H549   1.046       .  S
N546        H550   1.046       .  S
C551        C552   1.405       .  A
C551        C556   1.397       .  A
C551        H558   1.084       .  S
C552        C553   1.420       .  A
C553        C554   1.398       .  A
C553        N560   1.433       .  S
C554        C555   1.403       .  A
C554        H559   1.084       .  S
C555        C556   1.416       .  A
C556        N557   1.433       .  S
N557        H561   1.041       .  S
N557        H562   1.050       .  S
N560        H563   1.046       .  S
N560        H564   1.044       .  S
C565        C566   1.411       .  A
C565        C570   1.411       .  A
C565        H572   1.083       .  S
C566        C567   1.419       .  A
C567        C568   1.393       .  A
C567        N574   1.434       .  S
C568        C569   1.402       .  A
C568        H573   1.085       .  S
C569        C570   1.409       .  A
C570        N571   1.438       .  S
N571        H575   1.046       .  S
N571        H576   1.046       .  S
N574        H577   1.044       .  S
N574        H578   1.046       .  S
C579        C580   1.402       .  A
C579        C584   1.404       .  A
C579        H586   1.084       .  S
C580        C581   1.410       .  A
C581        C582   1.405       .  A
C581        N588   1.438       .  S
C582        C583   1.402       .  A
C582        H587   1.084       .  S
C583        C584   1.420       .  A
C584        N585   1.439       .  S
N585        H589   1.046       .  S
N585        H590   1.043       .  S
N588        H591   1.045       .  S
N588        H592   1.046       .  S
C593        C594   1.403       .  A
C593        C598   1.404       .  A
C593        H600   1.084       .  S
C594        C595   1.414       .  A
C595        C596   1.406       .  A
C595        N602   1.432       .  S
C596        C597   1.408       .  A
C596        H601   1.084       .  S
C597        C598   1.417       .  A
C598        N599   1.439       .  S
N599        H603   1.046       .  S
N599        H604   1.045       .  S
N602        H605   1.045       .  S
N602        H606   1.046       .  S
C607        C608   1.404       .  A
C607        C612   1.401       .  A
C607        H614   1.084       .  S
C608        C609   1.408       .  A
C609        C610   1.400       .  A
C609        N616   1.433       .  S
C610        C611   1.405       .  A
C610        H615   1.084       .  S
C611        C612   1.411       .  A
C612        N613   1.438       .  S
N613        H617   1.046       .  S
N613        H618   1.046       .  S
N616        H619   1.046       .  S
N616        H620   1.046       .  S
C621        C622   1.405       .  A
C621        C626   1.401       .  A
C621        H628   1.083       .  S
C622        C623   1.421       .  A
C623        C624   1.414       .  A
C623        N630   1.437       .  S
C624        C625   1.402       .  A
C624        H629   1.084       .  S
C625        C626   1.413       .  A
C626        N627   1.439       .  S
N627        H631   1.045       .  S
N627        H632   1.046       .  S
N630        H633   1.045       .  S
N630        H634   1.046       .  S
C635        C636   1.411       .  A
C635        C640   1.409       .  A
C635        H642   1.083       .  S
C636        C637   1.420       .  A
C637        C638   1.393       .  A
C637        N644   1.434       .  S
C638        C639   1.402       .  A
C638        H643   1.085       .  S
C639        C640   1.409       .  A
C640        N641   1.437       .  S
N641        H645   1.045       .  S
N641        H646   1.046   1_455  S
N644        H647   1.043       .  S
N644        H648   1.047       .  S
C649        C650   1.404       .  A
C649        C654   1.395       .  A
C649        H656   1.084       .  S
C650        C651   1.412       .  A
C651        C652   1.400       .  A
C651        N658   1.433       .  S
C652        C653   1.402       .  A
C652        H657   1.084       .  S
C653        C654   1.416       .  A
C654        N655   1.433       .  S
N655        H659   1.045       .  S
N655        H660   1.046       .  S
N658        H661   1.046       .  S
N658        H662   1.046       .  S
C663        C664   1.410       .  A
C663        C668   1.415       .  A
C663        H670   1.083       .  S
C664        C665   1.414       .  A
C665        C666   1.398       .  A
C665        N672   1.433       .  S
C666        C667   1.402       .  A
C666        H671   1.084       .  S
C667        C668   1.413       .  A
C668        N669   1.437       .  S
N669        H673   1.046       .  S
N669        H674   1.045       .  S
N672        H675   1.046       .  S
N672        H676   1.046       .  S
C677        C678   1.400       .  A
C677        C682   1.407       .  A
C677        H684   1.084       .  S
C678        C679   1.403       .  A
C679        C680   1.396       .  A
C679        N686   1.433       .  S
C680        C681   1.407       .  A
C680        H685   1.084       .  S
C681        C682   1.418       .  A
C682        N683   1.438       .  S
N683        H687   1.045       .  S
N683        H688   1.047       .  S
N686        H689   1.046       .  S
N686        H690   1.046       .  S
C691        C692   1.403       .  A
C691        C696   1.402       .  A
C691        H698   1.084       .  S
C692        C693   1.422       .  A
C693        C694   1.405       .  A
C693        N700   1.440       .  S
C694        C695   1.402       .  A
C694        H699   1.084       .  S
C695        C696   1.414       .  A
C696        N697   1.432       .  S
N697        H701   1.045       .  S
N697        H702   1.045       .  S
N700        H703   1.043       .  S
N700        H704   1.046       .  S
C705        C706   1.408       .  A
C705        C710   1.402       .  A
C705        H712   1.084       .  S
C706        C707   1.413       .  A
C707        C708   1.413       .  A
C707        N714   1.437       .  S
C708        C709   1.407       .  A
C708        H713   1.084       .  S
C709        C710   1.412       .  A
C710        N711   1.433       .  S
N711        H715   1.046       .  S
N711        H716   1.045       .  S
N714        H717   1.045       .  S
N714        H718   1.046       .  S
C719        C720   1.407       .  A
C719        C724   1.411       .  A
C719        H726   1.084       .  S
C720        C721   1.412       .  A
C721        C722   1.412       .  A
C721        N728   1.437       .  S
C722        C723   1.407       .  A
C722        H727   1.084       .  S
C723        C724   1.410       .  A
C724        N725   1.438       .  S
N725        H729   1.046       .  S
N725        H730   1.045       .  S
N728        H731   1.045   1_565  S
N728        H732   1.046       .  S
C733        C734   1.408       .  A
C733        C738   1.403       .  A
C733        H740   1.084       .  S
C734        C735   1.412       .  A
C735        C736   1.405       .  A
C735        N742   1.438       .  S
C736        C737   1.403       .  A
C736        H741   1.084       .  S
C737        C738   1.411       .  A
C738        N739   1.432       .  S
N739        H743   1.045       .  S
N739        H744   1.046       .  S
N742        H745   1.047       .  S
N742        H746   1.044       .  S
C747        C748   1.403       .  A
C747        C752   1.402       .  A
C747        H754   1.084       .  S
C748        C749   1.411       .  A
C749        C750   1.410       .  A
C749        N756   1.438       .  S
C750        C751   1.409       .  A
C750        H755   1.083       .  S
C751        C752   1.415       .  A
C752        N753   1.439       .  S
N753        H757   1.046       .  S
N753        H758   1.046       .  S
N756        H759   1.046       .  S
N756        H760   1.045       .  S
C761        C762   1.403       .  A
C761        C766   1.409       .  A
C761        H768   1.084       .  S
C762        C763   1.411       .  A
C763        C764   1.402       .  A
C763        N770   1.439       .  S
C764        C765   1.406       .  A
C764        H769   1.084       .  S
C765        C766   1.415       .  A
C766        N767   1.432       .  S
N767        H771   1.046       .  S
N767        H772   1.046       .  S
N770        H773   1.046       .  S
N770        H774   1.045       .  S
C775        C776   1.407       .  A
C775        C780   1.405       .  A
C775        H782   1.083       .  S
C776        C777   1.410       .  A
C777        C778   1.400       .  A
C777        N784   1.433       .  S
C778        C779   1.403       .  A
C778        H783   1.084       .  S
C779        C780   1.410       .  A
C780        N781   1.438       .  S
N781        H785   1.046       .  S
N781        H786   1.045       .  S
N784        H787   1.046       .  S
N784        H788   1.046       .  S
C789        C790   1.407       .  A
C789        C794   1.400       .  A
C789        H796   1.084       .  S
C790        C791   1.414       .  A
C791        C792   1.402       .  A
C791        N798   1.438       .  S
C792        C793   1.404       .  A
C792        H797   1.084       .  S
C793        C794   1.413       .  A
C794        N795   1.433       .  S
N795        H799   1.043       .  S
N795        H800   1.046   1_556  S
N798        H801   1.045       .  S
N798        H802   1.046       .  S
C803        C804   1.405       .  A
C803        C808   1.400       .  A
C803        H810   1.084       .  S
C804        C805   1.423       .  A
C805        C806   1.407       .  A
C805        N812   1.432       .  S
C806        C807   1.402       .  A
C806        H811   1.084       .  S
C807        C808   1.410       .  A
C808        N809   1.433       .  S
N809        H813   1.046       .  S
N809        H814   1.045       .  S
N812        H815   1.045       .  S
N812        H816   1.046       .  S
C817        C818   1.404       .  A
C817        C822   1.414       .  A
C817        H824   1.084       .  S
C818        C819   1.413       .  A
C819        C820   1.396       .  A
C819        N826   1.434       .  S
C820        C821   1.406       .  A
C820        H825   1.084       .  S
C821        C822   1.419       .  A
C822        N823   1.437       .  S
N823        H827   1.046       .  S
N823        H828   1.045       .  S
N826        H829   1.046       .  S
N826        H830   1.043       .  S
C831        C832   1.408       .  A
C831        C836   1.411       .  A
C831        H838   1.083       .  S
C832        C833   1.410       .  A
C833        C834   1.403       .  A
C833        N840   1.433       .  S
C834        C835   1.405       .  A
C834        H839   1.084       .  S
C835        C836   1.410       .  A
C836        N837   1.437       .  S
N837        H841   1.046       .  S
N837        H842   1.045       .  S
N840        H843   1.045       .  S
N840        H844   1.046       .  S
C845        C846   1.404       .  A
C845        C850   1.409       .  A
C845        H852   1.084       .  S
C846        C847   1.413       .  A
C847        C848   1.406       .  A
C847        N854   1.433       .  S
C848        C849   1.401       .  A
C848        H853   1.084       .  S
C849        C850   1.411       .  A
C850        N851   1.432       .  S
N851        H855   1.046       .  S
N851        H856   1.045       .  S
N854        H857   1.046       .  S
N854        H858   1.045       .  S
C859        C860   1.407       .  A
C859        C864   1.408       .  A
C859        H866   1.084       .  S
C860        C861   1.413       .  A
C861        C862   1.406       .  A
C861        N868   1.432       .  S
C862        C863   1.408       .  A
C862        H867   1.084       .  S
C863        C864   1.410       .  A
C864        N865   1.438       .  S
N865        H869   1.045       .  S
N865        H870   1.046       .  S
N868        H871   1.046       .  S
N868        H872   1.045       .  S
C873        C874   1.405       .  A
C873        C878   1.402       .  A
C873        H880   1.084       .  S
C874        C875   1.420       .  A
C875        C876   1.413       .  A
C875        N882   1.432       .  S
C876        C877   1.404       .  A
C876        H881   1.084       .  S
C877        C878   1.414       .  A
C878        N879   1.433       .  S
N879        H883   1.046       .  S
N879        H884   1.045       .  S
N882        H885   1.046       .  S
N882        H886   1.045       .  S
C887        C888   1.406       .  A
C887        C892   1.404       .  A
C887        H894   1.084       .  S
C888        C889   1.412       .  A
C889        C890   1.412       .  A
C889        N896   1.438       .  S
C890        C891   1.407       .  A
C890        H895   1.084       .  S
C891        C892   1.406       .  A
C892        N893   1.438       .  S
N893        H897   1.045       .  S
N893        H898   1.046       .  S
N896        H899   1.046       .  S
N896        H900   1.045       .  S
C901        C902   1.405       .  A
C901        C906   1.403       .  A
C901        H908   1.084       .  S
C902        C903   1.413       .  A
C903        C904   1.405       .  A
C903        N910   1.438       .  S
C904        C905   1.405       .  A
C904        H909   1.083       .  S
C905        C906   1.410       .  A
C906        N907   1.433       .  S
N907        H911   1.046       .  S
N907        H912   1.046       .  S
N910        H913   1.046       .  S
N910        H914   1.045       .  S
C915        C916   1.403       .  A
C915        C920   1.411       .  A
C915        H922   1.084       .  S
C916        C917   1.408       .  A
C917        C918   1.402       .  A
C917        N924   1.433       .  S
C918        C919   1.409       .  A
C918        H923   1.084       .  S
C919        C920   1.418       .  A
C920        N921   1.437       .  S
N921        H925   1.043       .  S
N921        H926   1.048       .  S
N924        H927   1.046       .  S
N924        H928   1.046       .  S
C929        C930   1.403       .  A
C929        C934   1.404       .  A
C929        H936   1.084       .  S
C930        C931   1.409       .  A
C931        C932   1.406       .  A
C931        N938   1.438       .  S
C932        C933   1.406       .  A
C932        H937   1.084       .  S
C933        C934   1.411       .  A
C934        N935   1.438       .  S
N935        H939   1.046       .  S
N935        H940   1.046       .  S
N938        H941   1.046       .  S
N938        H942   1.046       .  S
C943        C944   1.403       .  A
C943        C948   1.407       .  A
C943        H950   1.084       .  S
C944        C945   1.412       .  A
C945        C946   1.402       .  A
C945        N952   1.432       .  S
C946        C947   1.406       .  A
C946        H951   1.084       .  S
C947        C948   1.414       .  A
C948        N949   1.438       .  S
N949        H953   1.045       .  S
N949        H954   1.047       .  S
N952        H955   1.046       .  S
N952        H956   1.045       .  S
C957        C958   1.401       .  A
C957        C962   1.398       .  A
C957        H964   1.084       .  S
C958        C959   1.411       .  A
C959        C960   1.411       .  A
C959        N966   1.437       .  S
C960        C961   1.408       .  A
C960        H965   1.083       .  S
C961        C962   1.409       .  A
C962        N963   1.433       .  S
N963        H967   1.046       .  S
N963        H968   1.045       .  S
N966        H969   1.045       .  S
N966        H970   1.046       .  S
C971        C972   1.403       .  A
C971        C976   1.406       .  A
C971        H978   1.084       .  S
C972        C973   1.415       .  A
C973        C974   1.408       .  A
C973        N980   1.438       .  S
C974        C975   1.401       .  A
C974        H979   1.084       .  S
C975        C976   1.418       .  A
C976        N977   1.433       .  S
N977        H981   1.044       .  S
N977        H982   1.045       .  S
N980        H983   1.046       .  S
N980        H984   1.046       .  S
C985        C986   1.407       .  A
C985        C990   1.405       .  A
C985        H992   1.084       .  S
C986        C987   1.417       .  A
C987        C988   1.397       .  A
C987        N994   1.433       .  S
C988        C989   1.405       .  A
C988        H993   1.084       .  S
C989        C990   1.410       .  A
C990        N991   1.432       .  S
N991        H995   1.045       .  S
N991        H996   1.046       .  S
N994        H997   1.044       .  S
N994        H998   1.046       .  S
C999       C1000   1.402       .  A
C999       C1004   1.410       .  A
C999       H1006   1.084       .  S
C1000      C1001   1.413       .  A
C1001      C1002   1.405       .  A
C1001      N1008   1.439       .  S
C1002      C1003   1.405       .  A
C1002      H1007   1.083       .  S
C1003      C1004   1.418       .  A
C1004      N1005   1.432       .  S
N1005      H1009   1.046       .  S
N1005      H1010   1.045       .  S
N1008      H1011   1.047       .  S
N1008      H1012   1.044       .  S
C1013      C1014   1.402       .  A
C1013      C1018   1.407       .  A
C1013      H1020   1.084       .  S
C1014      C1015   1.415       .  A
C1015      C1016   1.410       .  A
C1015      N1022   1.438       .  S
C1016      C1017   1.402       .  A
C1016      H1021   1.084       .  S
C1017      C1018   1.411       .  A
C1018      N1019   1.432       .  S
N1019      H1023   1.045       .  S
N1019      H1024   1.046       .  S
N1022      H1025   1.047       .  S
N1022      H1026   1.045       .  S
C1027      C1028   1.403       .  A
C1027      C1032   1.411       .  A
C1027      H1034   1.084       .  S
C1028      C1029   1.409       .  A
C1029      C1030   1.401       .  A
C1029      N1036   1.438       .  S
C1030      C1031   1.406       .  A
C1030      H1035   1.084       .  S
C1031      C1032   1.417       .  A
C1032      N1033   1.437       .  S
N1033      H1037   1.045       .  S
N1033      H1038   1.046       .  S
N1036      H1039   1.047       .  S
N1036      H1040   1.045       .  S
