geometry optimzed in LAMMPS
_audit_creation_date              2020-11-30 
_audit_creation_method            'lammps2cif' 
_symmetry_space_group_name_H-M    'P1' 
_symmetry_Int_Tables_number       1 
_symmetry_cell_setting            triclinic 
loop_ 
_symmetry_equiv_pos_as_xyz 
  x,y,z 
_cell_length_a                    39.96154757 
_cell_length_b                    40.25071995532001 
_cell_length_c                    36.63186312357578 
_cell_angle_alpha                 89.87458445597518 
_cell_angle_beta                  90.06540846170451 
_cell_angle_gamma                 92.38647885592249 
loop_ 
_atom_site_label 
_atom_site_type_symbol 
_atom_site_fract_x 
_atom_site_fract_y 
_atom_site_fract_z 
_atom_site_charge 
O1          O  0.43468425  0.47203217  0.01767652    -0.80200
O2          O  0.07353267  0.03429866  0.01294039    -0.80200
O3          O  0.04079509  0.45451974  0.05295372    -0.80200
O4          O  0.48439742  0.08032497  0.03636246    -0.80100
O5          O  0.07805798  0.46218536  0.00927166    -0.80300
O6          O  0.45209493  0.03448190  0.03421330    -0.80200
O7          O  0.03321975  0.03827631  0.05367390    -0.80200
O8          O  0.47383847  0.46254591  0.05679557    -0.80200
C9          C  0.44318262  0.46150979  0.04885468     1.09500
C10         C  0.06391961  0.04223079  0.04483427     1.09400
C11         C  0.07041244  0.45262036  0.04149098     1.09500
C12         C  0.45806079  0.06433383  0.04663967     1.09400
O13         O  0.42372890  0.02310061  0.46920835    -0.80200
O14         O  0.04482926  0.46557765  0.44239071    -0.80200
O15         O  0.46867988  0.43271589  0.48508371    -0.80200
O16         O  0.03387933  0.06919940  0.48544536    -0.80200
O17         O  0.03949163  0.03195695  0.44328654    -0.80200
O18         O  0.46341850  0.47507387  0.44751147    -0.80200
O19         O  0.47152243  0.05295020  0.46850153    -0.80100
O20         O  0.03775435  0.42665041  0.48412728    -0.80200
Co21       Co  0.46348483  0.50534195  0.98962548     1.51500
Co22       Co  0.05584494  0.99811900  0.47726714     1.51700
Co23       Co  0.50552115  0.44760398  0.01962800     1.51600
Co24       Co  0.50212713  0.04019043  0.51287166     1.51500
O25         O  0.51089682  0.49436428  0.00000416    -1.42100
C26         C  0.44060911  0.04868088  0.45845040     1.09500
C27         C  0.04645452  0.43551450  0.45195810     1.09500
C28         C  0.45909854  0.44420329  0.45444967     1.09500
C29         C  0.04236050  0.06195059  0.45307904     1.09500
O30         O  0.32376198  0.28281910  0.26595885    -0.80200
O31         O  0.18334709  0.22120168  0.26654501    -0.80200
O32         O  0.23232856  0.33045614  0.28168601    -0.80200
O33         O  0.28944882  0.20913215  0.30615834    -0.80100
O34         O  0.20150561  0.28368302  0.28400628    -0.80300
O35         O  0.32787779  0.21594101  0.26384843    -0.80200
O36         O  0.22124107  0.21284215  0.30742599    -0.80200
O37         O  0.28110445  0.28811356  0.30371967    -0.80200
C38         C  0.31229253  0.29151977  0.29688482     1.09500
C39         C  0.19073782  0.21183248  0.29842478     1.09400
C40         C  0.20674759  0.31440371  0.29380174     1.09500
C41         C  0.31932310  0.20638348  0.29580634     1.09400
O42         O  0.29384276  0.21349286  0.19400782    -0.80200
O43         O  0.17323255  0.27117308  0.21829397    -0.80200
O44         O  0.28351272  0.31955117  0.23451468    -0.80200
O45         O  0.21875117  0.18116620  0.23492620    -0.80200
O46         O  0.21599323  0.22331556  0.19679525    -0.80200
O47         O  0.29196323  0.28198683  0.19356034    -0.80200
O48         O  0.28557389  0.17528529  0.23639019    -0.80100
O49         O  0.22033336  0.30177879  0.21580884    -0.80200
Co50       Co  0.30634318  0.24852482  0.22957071     1.51500
Co51       Co  0.21241203  0.25404298  0.23840350     1.51700
Co52       Co  0.24989571  0.29124464  0.26208378     1.51600
Co53       Co  0.25386825  0.19760791  0.27106460     1.51500
O54         O  0.25954229  0.24416534  0.25050279    -1.42100
C55         C  0.29479413  0.18352193  0.20416878     1.09500
C56         C  0.18957880  0.29607622  0.20536524     1.09500
C57         C  0.29336293  0.31221984  0.20290498     1.09500
C58         C  0.21142661  0.19252114  0.20343341     1.09500
C59         C  0.16019609  0.15774878  0.12231435    -0.22500
C60         C  0.15492984  0.12454016  0.13325356     0.09500
C61         C  0.17114775  0.11312826  0.16473034     0.09900
C62         C  0.19078268  0.13559671  0.18573197    -0.17400
C63         C  0.19455936  0.16955794  0.17637165    -0.27800
C64         C  0.17996505  0.18043044  0.14321096     0.18200
C65         C  0.13148918  0.10234716  0.11202564     0.12200
C66         C  0.16679471  0.07742282  0.17688274    -0.12200
H67         H  0.20240066  0.12655620  0.21035497     0.12500
C68         C  0.18453146  0.21568845  0.12952932    -0.23000
H69         H  0.14813206  0.16608052  0.09761124     0.08100
C70         C  0.09647355  0.10373535  0.11614412     0.04400
C71         C  0.07518083  0.08281790  0.09501150    -0.20200
C72         C  0.08795278  0.06032129  0.06975796    -0.12500
C73         C  0.12328948  0.05788851  0.06705251     0.13200
C74         C  0.14447343  0.07910811  0.08806536    -0.23000
C75         C  0.08156762  0.12724976  0.14297756    -0.06000
H76         H  0.04832400  0.08482442  0.09753697     0.14700
C77         C  0.13912183  0.03264951  0.04288403    -0.16200
H78         H  0.17142802  0.07773532  0.08569729     0.09000
H79         H  0.17334777  0.23308757  0.14901696     0.06900
H80         H  0.17212528  0.21915088  0.10272186     0.08100
H81         H  0.21161502  0.22217698  0.12596365     0.07100
H82         H  0.17620009  0.06076259  0.15544387     0.02000
H83         H  0.13986934  0.07115329  0.18190365     0.02500
H84         H  0.18079813  0.07268103  0.20244782     0.06000
H85         H  0.05378246  0.12469704  0.14338705     0.05000
H86         H  0.08877768  0.15331304  0.13554060    -0.00800
H87         H  0.09088487  0.12195172  0.17087314     0.00700
H88         H  0.13460662  0.03839173  0.01371883     0.04300
H89         H  0.12875347  0.00736862  0.04955834     0.06300
H90         H  0.16669184  0.03257277  0.04678810     0.07100
C91         C  0.09289561  0.10409125  0.37591698    -0.22500
C92         C  0.09644419  0.13662659  0.38903088     0.09500
C93         C  0.07907144  0.14559666  0.42068919     0.09900
C94         C  0.06041745  0.12102802  0.44016593    -0.17400
C95         C  0.05834269  0.08765653  0.42841290    -0.27800
C96         C  0.07393722  0.07948715  0.39481079     0.18200
C97         C  0.11972428  0.16015121  0.36950542     0.12200
C98         C  0.08050978  0.18099768  0.43395657    -0.12200
H99         H  0.04806800  0.12788435  0.46519733     0.12500
C100        C  0.07169744  0.04501094  0.37858508    -0.23000
H101        H  0.10588652  0.09775283  0.35106737     0.08100
C102        C  0.15414355  0.16210538  0.37802425     0.04400
C103        C  0.17623116  0.18075312  0.35547554    -0.20200
C104        C  0.16497350  0.19691135  0.32383367    -0.12500
C105        C  0.12999832  0.19602933  0.31636636     0.13200
C106        C  0.10792793  0.17774189  0.33946550    -0.23000
C107        C  0.16774364  0.14349077  0.41019295    -0.06000
H108        H  0.20272006  0.18136185  0.36186314     0.14700
C109        C  0.11543975  0.21335754  0.28383283    -0.16200
H110        H  0.08139349  0.17596536  0.33323363     0.09000
H111        H  0.08385763  0.02714862  0.39695243     0.06900
H112        H  0.08458850  0.04397030  0.35178392     0.08100
H113        H  0.04505583  0.03716390  0.37400431     0.07100
H114        H  0.07072103  0.19747551  0.41243167     0.02000
H115        H  0.10676745  0.18902452  0.44032027     0.02500
H116        H  0.06522450  0.18395247  0.45895448     0.06000
H117        H  0.19531026  0.14746631  0.41286003     0.05000
H118        H  0.16214513  0.11641148  0.40691989    -0.00800
H119        H  0.15602837  0.15206426  0.43576193     0.00700
H120        H  0.12422898  0.20200064  0.25818010     0.04300
H121        H  0.12283815  0.24020398  0.28435352     0.06300
H122        H  0.08763922  0.21121623  0.28365057     0.07100
C123        C  0.11370961  0.41449180  0.12272471    -0.22500
C124        C  0.13171715  0.38987633  0.10548752     0.09500
C125        C  0.13202311  0.38804105  0.06706357     0.09900
C126        C  0.11393347  0.41086631  0.04669139    -0.17400
C127        C  0.09466004  0.43470830  0.06395134    -0.27800
C128        C  0.09532172  0.43707370  0.10252114     0.18200
C129        C  0.14773846  0.36485663  0.12862251     0.12200
C130        C  0.14994895  0.36100249  0.04770497    -0.12200
H131        H  0.11322127  0.40875171  0.01721935     0.12500
C132        C  0.07709613  0.46306104  0.12333320    -0.23000
H133        H  0.11361730  0.41576606  0.15229849     0.08100
C134        C  0.18147533  0.36847836  0.13958863     0.04400
C135        C  0.19440000  0.34521914  0.16388995    -0.20200
C136        C  0.17433199  0.31854478  0.17802132    -0.15100
C137        C  0.14034652  0.31501097  0.16651269     0.13200
C138        C  0.12773187  0.33815602  0.14186057    -0.23000
C139        C  0.20365874  0.39721630  0.12631440    -0.06000
H140        H  0.22035101  0.34823920  0.17213904     0.14700
C141        C  0.11666314  0.28763334  0.18028826    -0.16200
H142        H  0.10174654  0.33588721  0.13333293     0.09000
H143        H  0.09470592  0.47606287  0.14252103     0.06900
H144        H  0.05629447  0.45092881  0.13919923     0.08100
H145        H  0.06691445  0.48245521  0.10549116     0.07100
H146        H  0.13898009  0.33630671  0.05589393     0.02000
H147        H  0.17693628  0.36226842  0.05476439     0.02500
H148        H  0.14787836  0.36338168  0.01763372     0.06000
H149        H  0.22922089  0.39667529  0.13820843     0.05000
H150        H  0.19269541  0.42105914  0.13416470    -0.00800
H151        H  0.20609653  0.39635571  0.09619889     0.00700
H152        H  0.11395915  0.28950358  0.21036792     0.04300
H153        H  0.12606412  0.26301402  0.17282983     0.06300
H154        H  0.09125318  0.28917246  0.16823853     0.07100
C155        C  0.41346786  0.12343650  0.11139379    -0.22500
C156        C  0.38285032  0.10589871  0.11692716     0.09500
C157        C  0.37753650  0.07441043  0.10072609     0.09900
C158        C  0.40280843  0.06137019  0.07889908    -0.17400
C159        C  0.43348455  0.07912122  0.07238215    -0.27800
C160        C  0.43881492  0.11065908  0.08939124     0.18200
C161        C  0.35657753  0.12165807  0.13908549     0.12200
C162        C  0.34500239  0.05474500  0.10611188    -0.12200
H163        H  0.39813433  0.03729028  0.06631469     0.12500
C164        C  0.47085532  0.13133965  0.08470571    -0.23000
H165        H  0.41734753  0.14758130  0.12411688     0.08100
C166        C  0.35493809  0.11776103  0.17733841     0.04400
C167        C  0.33195434  0.13587608  0.19746321    -0.20200
C168        C  0.31180071  0.15928231  0.18053618    -0.12500
C169        C  0.31200797  0.16160669  0.14189138     0.13200
C170        C  0.33429221  0.14261202  0.12169928    -0.23000
C171        C  0.37853614  0.09569601  0.19711806    -0.06000
H172        H  0.33142236  0.13334283  0.22690600     0.14700
C173        C  0.28871414  0.18377164  0.12168528    -0.16200
H174        H  0.33525002  0.14503239  0.09224128     0.09000
H175        H  0.47076978  0.15465013  0.10087200     0.06900
H176        H  0.47416258  0.13854634  0.05563038     0.08100
H177        H  0.49244807  0.11709114  0.09412749     0.07100
H178        H  0.32391285  0.06916791  0.09567353     0.02000
H179        H  0.34102364  0.04948739  0.13556820     0.02500
H180        H  0.34477532  0.03061070  0.09144013     0.06000
H181        H  0.37403470  0.09553853  0.22704019     0.05000
H182        H  0.40478965  0.10473531  0.19229481    -0.00800
H183        H  0.37525430  0.06978722  0.18706960     0.00700
H184        H  0.29025880  0.18020478  0.09168711     0.04300
H185        H  0.29530945  0.21030609  0.12724935     0.06300
H186        H  0.26245410  0.17789122  0.13016682     0.07100
C187        C  0.39022775  0.32671115  0.34646662    -0.22500
C188        C  0.37672961  0.35288443  0.36593432     0.09500
C189        C  0.34182955  0.35682948  0.36532784     0.09900
C190        C  0.32137927  0.33552944  0.34373054    -0.17400
C191        C  0.33486095  0.31005034  0.32286409    -0.27800
C192        C  0.36977801  0.30500124  0.32522576     0.18200
C193        C  0.39944984  0.37545558  0.38753178     0.12200
C194        C  0.32616136  0.38345333  0.38762624    -0.12200
H195        H  0.29476978  0.33942747  0.34239737     0.12500
C196        C  0.38562815  0.27617618  0.30678367    -0.23000
H197        H  0.41696839  0.32329445  0.34796899     0.08100
C198        C  0.41059933  0.36636109  0.42243501     0.04400
C199        C  0.43086729  0.38892850  0.44257537    -0.20200
C200        C  0.43991394  0.42103384  0.42925334    -0.12500
C201        C  0.42879138  0.42993054  0.39380514     0.13200
C202        C  0.40906632  0.40681237  0.37334765    -0.23000
C203        C  0.40032647  0.33311606  0.43887736    -0.06000
H204        H  0.43884464  0.38150143  0.46954704     0.14700
C205        C  0.43680033  0.46367274  0.37734763    -0.16200
H206        H  0.40031415  0.41349545  0.34639629     0.09000
H207        H  0.41261775  0.27495528  0.31372237     0.06900
H208        H  0.38383820  0.27840441  0.27669371     0.08100
H209        H  0.37300073  0.25264491  0.31605882     0.07100
H210        H  0.33634797  0.40832335  0.37904843     0.02000
H211        H  0.33177242  0.37962096  0.41699441     0.02500
H212        H  0.29851761  0.38301319  0.38424967     0.06000
H213        H  0.41064739  0.33016072  0.46680887     0.05000
H214        H  0.40959341  0.31280920  0.42164436    -0.00800
H215        H  0.37259727  0.33060944  0.44064418     0.00700
H216        H  0.42686355  0.46565184  0.34912813     0.04300
H217        H  0.46431074  0.46844511  0.37611555     0.06300
H218        H  0.42522643  0.48318502  0.39390155     0.07100
C219        C  0.41956367  0.13021426  0.41180819    -0.22500
C220        C  0.39494408  0.11924764  0.38703530     0.09500
C221        C  0.38530540  0.08514923  0.38546747     0.09900
C222        C  0.40089198  0.06259091  0.40865799    -0.17400
C223        C  0.42558536  0.07343684  0.43378525    -0.27800
C224        C  0.43471277  0.10794268  0.43557806     0.18200
C225        C  0.37771302  0.14429222  0.36501521     0.12200
C226        C  0.35809535  0.07276106  0.35981196    -0.12200
H227        H  0.39354769  0.03639873  0.40734201     0.12500
C228        C  0.45874737  0.12206985  0.46382523    -0.23000
H229        H  0.42614895  0.15658693  0.41329075     0.08100
C230        C  0.34901012  0.15925146  0.37841092     0.04400
C231        C  0.33174060  0.18080031  0.35579699    -0.20200
C232        C  0.34251814  0.18814467  0.31994232    -0.12500
C233        C  0.37304506  0.17501484  0.30765237     0.13200
C234        C  0.39002043  0.15300119  0.33036265    -0.23000
C235        C  0.33634916  0.15208204  0.41648807    -0.06000
H236        H  0.30907619  0.19130144  0.36607885     0.14700
C237        C  0.38792429  0.18339100  0.27078586    -0.16200
H238        H  0.41270370  0.14198350  0.32083894     0.09000
H239        H  0.46118199  0.14963535  0.46243179     0.06900
H240        H  0.48406264  0.11260032  0.45951768     0.08100
H241        H  0.44943651  0.11530922  0.49147094     0.07100
H242        H  0.36531306  0.07881791  0.33123327     0.02000
H243        H  0.33433033  0.08479096  0.36631114     0.02500
H244        H  0.35355879  0.04541617  0.36198000     0.06000
H245        H  0.31339442  0.16566521  0.42261590     0.05000
H246        H  0.35586393  0.15986378  0.43667893    -0.00800
H247        H  0.33030063  0.12507854  0.41973570     0.00700
H248        H  0.41207131  0.17127839  0.26647020     0.04300
H249        H  0.39284419  0.21064298  0.26843944     0.06300
H250        H  0.37070475  0.17476237  0.24877019     0.07100
C251        C  0.08587430  0.39629220  0.36850169    -0.22500
C252        C  0.10647660  0.37342742  0.38525327     0.09500
C253        C  0.10402593  0.36800027  0.42319883     0.09900
C254        C  0.08215073  0.38688123  0.44386946    -0.17400
C255        C  0.06336678  0.41181455  0.42764693    -0.27800
C256        C  0.06432192  0.41557800  0.38913745     0.18200
C257        C  0.13219258  0.35743764  0.36290320     0.12200
C258        C  0.12556147  0.34334359  0.44205795    -0.12200
H259        H  0.08123288  0.38338907  0.47319329     0.12500
C260        C  0.04243794  0.43940323  0.36945361    -0.23000
H261        H  0.08751512  0.39981326  0.33918882     0.08100
C262        C  0.12621153  0.32617979  0.34644526     0.04400
C263        C  0.15134279  0.31277483  0.32491796    -0.20200
C264        C  0.18235752  0.32992532  0.31886929    -0.12500
C265        C  0.18826333  0.36133900  0.33587666     0.13200
C266        C  0.16306496  0.37453713  0.35762232    -0.23000
C267        C  0.09310845  0.30726477  0.35092346    -0.06000
H268        H  0.14631311  0.28888173  0.31213957     0.14700
C269        C  0.22090145  0.38114584  0.33189980    -0.16200
H270        H  0.16733681  0.39856087  0.37053644     0.09000
H271        H  0.04416126  0.43667072  0.33935775     0.06900
H272        H  0.05012674  0.46549019  0.37604586     0.08100
H273        H  0.01595776  0.43424537  0.37741686     0.07100
H274        H  0.15237948  0.35124138  0.43913917     0.02000
H275        H  0.12144602  0.31831502  0.42991681     0.02500
H276        H  0.11952528  0.34118807  0.47152905     0.06000
H277        H  0.09263286  0.28315286  0.33618390     0.05000
H278        H  0.07267019  0.32224269  0.33992545    -0.00800
H279        H  0.08819068  0.30194161  0.38017320     0.00700
H280        H  0.22489252  0.38847725  0.30296062     0.04300
H281        H  0.24182588  0.36614928  0.34157119     0.06300
H282        H  0.22127107  0.40434239  0.34829936     0.07100
C283        C  0.40230240  0.41546928  0.12989480    -0.22500
C284        C  0.37061233  0.40734784  0.11541544     0.09500
C285        C  0.36146186  0.42034916  0.08132326     0.09900
C286        C  0.38522227  0.43920029  0.06102455    -0.17400
C287        C  0.41799988  0.44560927  0.07414684    -0.27800
C288        C  0.42615252  0.43460002  0.10994034     0.18200
C289        C  0.34832592  0.38337151  0.13546958     0.12200
C290        C  0.32670700  0.41395585  0.06625952    -0.12200
H291        H  0.37833400  0.44802654  0.03420473     0.12500
C292        C  0.45972497  0.44238684  0.12757738    -0.23000
H293        H  0.40872180  0.40582445  0.15654657     0.08100
C294        C  0.34876729  0.34904154  0.12815339     0.04400
C295        C  0.32903658  0.32680349  0.14930884    -0.20200
C296        C  0.30946523  0.33786162  0.17845114    -0.12500
C297        C  0.30816100  0.37266277  0.18479329     0.13200
C298        C  0.32764060  0.39488503  0.16308160    -0.23000
C299        C  0.37101992  0.33574895  0.09883912    -0.06000
H300        H  0.33019228  0.30041069  0.14395641     0.14700
C301        C  0.28667496  0.38689954  0.21425496    -0.16200
H302        H  0.32738109  0.42140050  0.16816160     0.09000
H303        H  0.47976263  0.42975161  0.11274212     0.06900
H304        H  0.46040097  0.43364799  0.15634725     0.08100
H305        H  0.46503179  0.46969099  0.12773259     0.07100
H306        H  0.30805264  0.42363200  0.08554494     0.02000
H307        H  0.32158449  0.38688048  0.06250091     0.02500
H308        H  0.32344369  0.42639108  0.03947505     0.06000
H309        H  0.36837840  0.30824085  0.09672134     0.05000
H310        H  0.39761145  0.34253402  0.10513949    -0.00800
H311        H  0.36448827  0.34640928  0.07193643     0.00700
H312        H  0.29579851  0.37952394  0.24159210     0.04300
H313        H  0.26021596  0.37807714  0.21063287     0.06300
H314        H  0.28739895  0.41451165  0.21345572     0.07100
O315        O  0.43425405  0.47280433  0.51855196    -0.80200
O316        O  0.07529936  0.03188656  0.51276339    -0.80200
O317        O  0.04303545  0.45861626  0.55465824    -0.80200
O318        O  0.48594442  0.07889677  0.53504006    -0.80100
O319        O  0.08037465  0.46707791  0.51110553    -0.80300
O320        O  0.45335453  0.03320942  0.53515361    -0.80200
O321        O  0.03559566  0.03476192  0.55421468    -0.80200
O322        O  0.47366669  0.46307553  0.55751696    -0.80200
C323        C  0.44292488  0.46243265  0.54971948     1.09500
C324        C  0.06612110  0.03919354  0.54493665     1.09400
C325        C  0.07279095  0.45730133  0.54326831     1.09500
C326        C  0.45973981  0.06336269  0.54645221     1.09400
O327        O  0.42428176  0.02365888  0.96756246    -0.80200
O328        O  0.04143310  0.46274174  0.94103121    -0.80200
O329        O  0.46957858  0.43228915  0.98391862    -0.80200
O330        O  0.03241745  0.07202785  0.98478821    -0.80200
O331        O  0.03743052  0.03427117  0.94330648    -0.80200
O332        O  0.46488596  0.47526096  0.94703129    -0.80200
O333        O  0.47136535  0.05482115  0.96908225    -0.80100
O334        O  0.03460884  0.42314215  0.98198596    -0.80200
Co335      Co  0.46213833  0.50588541  0.48966604     1.51500
Co336      Co  0.05434166  0.00055621  0.97705048     1.51700
Co337      Co  0.50511074  0.44860759  0.51969311     1.51600
Co338      Co  0.50170595  0.04231766  0.01395531     1.51500
O339        O  0.50967302  0.49560170  0.50002298    -1.42100
C340        C  0.44082317  0.04983801  0.95782954     1.09500
C341        C  0.04320245  0.43258083  0.94992577     1.09500
C342        C  0.46013106  0.44437528  0.95346017     1.09500
C343        C  0.04123896  0.06425975  0.95272633     1.09500
O344        O  0.32396961  0.28393049  0.76426679    -0.80200
O345        O  0.18364226  0.22145708  0.76418548    -0.80200
O346        O  0.23234778  0.33085342  0.77935803    -0.80200
O347        O  0.28980008  0.21083820  0.80459041    -0.80100
O348        O  0.20120128  0.28426138  0.78096306    -0.80300
O349        O  0.32868302  0.21694837  0.76276232    -0.80200
O350        O  0.22142778  0.21345497  0.80538411    -0.80200
O351        O  0.28107142  0.28887609  0.80179035    -0.80200
C352        C  0.31217566  0.29301961  0.79491404     1.09500
C353        C  0.19096705  0.21211499  0.79608625     1.09400
C354        C  0.20651561  0.31493922  0.79100889     1.09500
C355        C  0.31973696  0.20772746  0.79470644     1.09400
O356        O  0.29537988  0.21374289  0.69251341    -0.80200
O357        O  0.17367563  0.27112587  0.71487835    -0.80200
O358        O  0.28348005  0.31983675  0.73242750    -0.80200
O359        O  0.21970046  0.18087180  0.73381241    -0.80200
O360        O  0.21614390  0.22234103  0.69484457    -0.80200
O361        O  0.29269072  0.28226215  0.69165429    -0.80200
O362        O  0.28678444  0.17592030  0.73532943    -0.80100
O363        O  0.22086528  0.30175431  0.71343050    -0.80200
Co364      Co  0.30709990  0.24916104  0.72801044     1.51500
Co365      Co  0.21263613  0.25402530  0.73576813     1.51700
Co366      Co  0.25002031  0.29152909  0.76000796     1.51600
Co367      Co  0.25456855  0.19825335  0.76955935     1.51500
O368        O  0.25990395  0.24454431  0.74835103    -1.42100
C369        C  0.29640748  0.18389723  0.70315216     1.09500
C370        C  0.19033652  0.29603743  0.70229455     1.09500
C371        C  0.29341873  0.31252483  0.70087008     1.09500
C372        C  0.21187807  0.19159750  0.70223706     1.09500
C373        C  0.16322324  0.15378501  0.62072812    -0.22500
C374        C  0.15766977  0.12097670  0.63282889     0.09500
C375        C  0.17234838  0.11078055  0.66569495     0.09900
C376        C  0.19080188  0.13414358  0.68678153    -0.17400
C377        C  0.19511338  0.16775702  0.67594706    -0.27800
C378        C  0.18166102  0.17738732  0.64174483     0.18200
C379        C  0.13428324  0.09847752  0.61204472     0.12200
C380        C  0.16781997  0.07539712  0.67891889    -0.12200
H381        H  0.20124130  0.12602560  0.71244538     0.12500
C382        C  0.18575893  0.21237521  0.62721832    -0.23000
H383        H  0.15205051  0.16118955  0.59514086     0.08100
C384        C  0.09931516  0.10046085  0.61590720     0.04400
C385        C  0.07783991  0.07960278  0.59499825    -0.20200
C386        C  0.09037944  0.05705794  0.56969988    -0.12500
C387        C  0.12568884  0.05450603  0.56664634     0.13200
C388        C  0.14708936  0.07514121  0.58808886    -0.23000
C389        C  0.08467195  0.12484210  0.64197662    -0.06000
H390        H  0.05102487  0.08186718  0.59750995     0.14700
C391        C  0.14126126  0.03014111  0.54118559    -0.16200
H392        H  0.17401871  0.07357823  0.58567380     0.09000
H393        H  0.17339283  0.22981181  0.64575495     0.06900
H394        H  0.17419425  0.21490128  0.59981736     0.08100
H395        H  0.21278009  0.21954098  0.62460173     0.07100
H396        H  0.17842012  0.05830786  0.65862330     0.02000
H397        H  0.14076218  0.06888185  0.68261159     0.02500
H398        H  0.18067034  0.07156642  0.70540557     0.06000
H399        H  0.05686297  0.12296959  0.64199990     0.05000
H400        H  0.09256016  0.15061866  0.63404170    -0.00800
H401        H  0.09353490  0.11987616  0.67012573     0.00700
H402        H  0.13653461  0.03705976  0.51236700     0.04300
H403        H  0.13085288  0.00465536  0.54672916     0.06300
H404        H  0.16885343  0.02984624  0.54477280     0.07100
C405        C  0.09574525  0.10341161  0.87692460    -0.22500
C406        C  0.09668783  0.13688328  0.88696313     0.09500
C407        C  0.07743086  0.14707757  0.91679026     0.09900
C408        C  0.05842055  0.12311233  0.93685496    -0.17400
C409        C  0.05842699  0.08905389  0.92786871    -0.27800
C410        C  0.07715146  0.07929331  0.89685982     0.18200
C411        C  0.11990196  0.16003176  0.86681700     0.12200
C412        C  0.07769159  0.18308577  0.92785177    -0.12200
H413        H  0.04419078  0.13098265  0.96022234     0.12500
C414        C  0.07911079  0.04354394  0.88490331    -0.23000
H415        H  0.11068558  0.09600420  0.85386512     0.08100
C416        C  0.15426827  0.16231778  0.87551491     0.04400
C417        C  0.17630573  0.18112553  0.85309874    -0.20200
C418        C  0.16513897  0.19686296  0.82118003    -0.12500
C419        C  0.13025351  0.19520502  0.81311894     0.13200
C420        C  0.10815968  0.17700367  0.83629577    -0.23000
C421        C  0.16786966  0.14389136  0.90780887    -0.06000
H422        H  0.20273578  0.18214796  0.85980409     0.14700
C423        C  0.11585191  0.21163620  0.77991097    -0.16200
H424        H  0.08169397  0.17481596  0.82978510     0.09000
H425        H  0.08995303  0.02850310  0.90708091     0.06900
H426        H  0.09533182  0.04100030  0.86054930     0.08100
H427        H  0.05378930  0.03334388  0.87745295     0.07100
H428        H  0.06850092  0.19830001  0.90489423     0.02000
H429        H  0.10358772  0.19185224  0.93497270     0.02500
H430        H  0.06140982  0.18696451  0.95188871     0.06000
H431        H  0.19528714  0.14863889  0.91107203     0.05000
H432        H  0.16316281  0.11671989  0.90417990    -0.00800
H433        H  0.15540881  0.15190271  0.93318894     0.00700
H434        H  0.12538335  0.20007836  0.75469598     0.04300
H435        H  0.12260362  0.23865017  0.78007067     0.06300
H436        H  0.08809389  0.20880998  0.77914880     0.07100
C437        C  0.11734512  0.41847147  0.62342241    -0.22500
C438        C  0.13434037  0.39347558  0.60551421     0.09500
C439        C  0.13423391  0.39222794  0.56709007     0.09900
C440        C  0.11625174  0.41555227  0.54737907    -0.17400
C441        C  0.09735650  0.43930550  0.56527774    -0.27800
C442        C  0.09897482  0.44156402  0.60382056     0.18200
C443        C  0.14987520  0.36748627  0.62775164     0.12200
C444        C  0.15164060  0.36528057  0.54702203    -0.12200
H445        H  0.11518801  0.41380411  0.51789406     0.12500
C446        C  0.08206635  0.46810290  0.62513107    -0.23000
H447        H  0.11788004  0.41954498  0.65299966     0.08100
C448        C  0.18363681  0.37017092  0.63875101     0.04400
C449        C  0.19625156  0.34566257  0.66168004    -0.20200
C450        C  0.17574080  0.31888852  0.67487290    -0.15100
C451        C  0.14190315  0.31598780  0.66282703     0.13200
C452        C  0.12964680  0.34024787  0.63925762    -0.23000
C453        C  0.20613574  0.39925444  0.62705993    -0.06000
H454        H  0.22225124  0.34792849  0.66985164     0.14700
C455        C  0.11804829  0.28811153  0.67493568    -0.16200
H456        H  0.10374837  0.33847236  0.63035391     0.09000
H457        H  0.10095306  0.48185156  0.64222068     0.06900
H458        H  0.06262336  0.45641252  0.64320882     0.08100
H459        H  0.07028732  0.48670223  0.60749543     0.07100
H460        H  0.13998517  0.34062439  0.55427818     0.02000
H461        H  0.17855982  0.36571487  0.55439847     0.02500
H462        H  0.14999031  0.36863092  0.51704621     0.06000
H463        H  0.23174491  0.39776935  0.63863679     0.05000
H464        H  0.19555073  0.42279658  0.63653070    -0.00800
H465        H  0.20833625  0.39991144  0.59689499     0.00700
H466        H  0.11464854  0.28899164  0.70498672     0.04300
H467        H  0.12777784  0.26380466  0.66680544     0.06300
H468        H  0.09291837  0.28995398  0.66228053     0.07100
C469        C  0.41652336  0.12430420  0.61027281    -0.22500
C470        C  0.38594452  0.10698473  0.61681723     0.09500
C471        C  0.38021825  0.07522077  0.60144170     0.09900
C472        C  0.40509774  0.06154954  0.57964819    -0.17400
C473        C  0.43574411  0.07897455  0.57218015    -0.27800
C474        C  0.44143798  0.11094692  0.58809172     0.18200
C475        C  0.36005489  0.12304465  0.63922058     0.12200
C476        C  0.34766579  0.05586079  0.60781394    -0.12200
H477        H  0.40009218  0.03721090  0.56778891     0.12500
C478        C  0.47337800  0.13146531  0.58200196    -0.23000
H479        H  0.42068622  0.14872311  0.62228428     0.08100
C480        C  0.36018098  0.12121391  0.67769378     0.04400
C481        C  0.33670829  0.13880217  0.69771555    -0.20200
C482        C  0.31420394  0.15964731  0.68031858    -0.12500
C483        C  0.31261662  0.15965075  0.64166862     0.13200
C484        C  0.33550314  0.14122396  0.62163287    -0.23000
C485        C  0.38578554  0.10158239  0.69763575    -0.06000
H486        H  0.33729226  0.13776354  0.72725691     0.14700
C487        C  0.28648328  0.17842112  0.62144392    -0.16200
H488        H  0.33491082  0.14175277  0.59205108     0.09000
H489        H  0.47361110  0.15521869  0.59739888     0.06900
H490        H  0.47610035  0.13785270  0.55263836     0.08100
H491        H  0.49516094  0.11746975  0.59137185     0.07100
H492        H  0.32655406  0.07000965  0.59695539     0.02000
H493        H  0.34394077  0.05161709  0.63751102     0.02500
H494        H  0.34723057  0.03126062  0.59409059     0.06000
H495        H  0.38207407  0.10229321  0.72767388     0.05000
H496        H  0.41130973  0.11207661  0.69155837    -0.00800
H497        H  0.38392098  0.07521415  0.68878744     0.00700
H498        H  0.28726344  0.17356290  0.59162505     0.04300
H499        H  0.29062181  0.20557420  0.62542269     0.06300
H500        H  0.26116827  0.17051443  0.63146947     0.07100
C501        C  0.38872776  0.32912025  0.84610168    -0.22500
C502        C  0.37513234  0.35630172  0.86372928     0.09500
C503        C  0.34054436  0.36146354  0.86039537     0.09900
C504        C  0.32058470  0.33985035  0.83855686    -0.17400
C505        C  0.33416514  0.31280946  0.82035728    -0.27800
C506        C  0.36870694  0.30710401  0.82482718     0.18200
C507        C  0.39760110  0.37850964  0.88613600     0.12200
C508        C  0.32457924  0.38941571  0.88030989    -0.12200
H509        H  0.29434287  0.34448524  0.83507963     0.12500
C510        C  0.38450902  0.27722105  0.80863653    -0.23000
H511        H  0.41522054  0.32504696  0.84922630     0.08100
C512        C  0.40994215  0.36806930  0.92011744     0.04400
C513        C  0.43118830  0.38970488  0.94030865    -0.20200
C514        C  0.44023141  0.42209654  0.92796052    -0.12500
C515        C  0.42810126  0.43228919  0.89334497     0.13200
C516        C  0.40710577  0.41025280  0.87294960    -0.23000
C517        C  0.39989053  0.33440656  0.93568757    -0.06000
H518        H  0.44004777  0.38127727  0.96657033     0.14700
C519        C  0.43684200  0.46610176  0.87744139    -0.16200
H520        H  0.39775452  0.41788611  0.84656622     0.09000
H521        H  0.41115161  0.27566849  0.81689757     0.06900
H522        H  0.38381622  0.27830928  0.77841122     0.08100
H523        H  0.37096192  0.25437716  0.81847636     0.07100
H524        H  0.33585863  0.41368363  0.87120197     0.02000
H525        H  0.32854753  0.38659132  0.91014654     0.02500
H526        H  0.29718696  0.38958795  0.87517612     0.06000
H527        H  0.41090352  0.33060327  0.96315997     0.05000
H528        H  0.40860836  0.31448276  0.91758359    -0.00800
H529        H  0.37220917  0.33202267  0.93825596     0.00700
H530        H  0.42600105  0.46909808  0.84974899     0.04300
H531        H  0.46444647  0.46973447  0.87509804     0.06300
H532        H  0.42669431  0.48572680  0.89496171     0.07100
C533        C  0.41802295  0.13155603  0.91247590    -0.22500
C534        C  0.39363154  0.12041752  0.88754119     0.09500
C535        C  0.38523366  0.08612108  0.88487203     0.09900
C536        C  0.40114228  0.06363885  0.90788623    -0.17400
C537        C  0.42564224  0.07462114  0.93320923    -0.27800
C538        C  0.43428050  0.10924488  0.93526766     0.18200
C539        C  0.37649229  0.14529444  0.86520334     0.12200
C540        C  0.35936284  0.07338213  0.85783106    -0.12200
H541        H  0.39442030  0.03733949  0.90601746     0.12500
C542        C  0.45952865  0.12339944  0.96224097    -0.23000
H543        H  0.42406167  0.15801939  0.91433869     0.08100
C544        C  0.34720124  0.15978132  0.87770082     0.04400
C545        C  0.33039482  0.18133044  0.85466401    -0.20200
C546        C  0.34235988  0.18937901  0.81940032    -0.12500
C547        C  0.37355313  0.17694755  0.80826294     0.13200
C548        C  0.38986567  0.15463975  0.83120601    -0.23000
C549        C  0.33352068  0.15229292  0.91528629    -0.06000
H550        H  0.30725126  0.19138517  0.86420377     0.14700
C551        C  0.39014988  0.18677470  0.77267256    -0.16200
H552        H  0.41305832  0.14410486  0.82249522     0.09000
H553        H  0.46168480  0.15098257  0.96098503     0.06900
H554        H  0.48468754  0.11417345  0.95626723     0.08100
H555        H  0.45168627  0.11641649  0.99032686     0.07100
H556        H  0.36737949  0.08033969  0.82972667     0.02000
H557        H  0.33492538  0.08439624  0.86362580     0.02500
H558        H  0.35580662  0.04588870  0.85910211     0.06000
H559        H  0.31022579  0.16558205  0.92068275     0.05000
H560        H  0.35236097  0.16022220  0.93615355    -0.00800
H561        H  0.32771813  0.12521600  0.91820427     0.00700
H562        H  0.41471947  0.17520628  0.76938346     0.04300
H563        H  0.39469972  0.21412358  0.77165257     0.06300
H564        H  0.37431208  0.17872586  0.74929291     0.07100
C565        C  0.08431657  0.39665191  0.86568487    -0.22500
C566        C  0.10545762  0.37395408  0.88193671     0.09500
C567        C  0.10273556  0.36745570  0.91968116     0.09900
C568        C  0.08014896  0.38515762  0.94072586    -0.17400
C569        C  0.06066691  0.40980056  0.92507470    -0.27800
C570        C  0.06190206  0.41467583  0.88669577     0.18200
C571        C  0.13127799  0.35838938  0.85920808     0.12200
C572        C  0.12443086  0.34258236  0.93791658    -0.12200
H573        H  0.07909854  0.38093010  0.96992969     0.12500
C574        C  0.03959670  0.43854965  0.86756549    -0.23000
H575        H  0.08608756  0.40095595  0.83650678     0.08100
C576        C  0.12489479  0.32786036  0.84132176     0.04400
C577        C  0.15012993  0.31439040  0.81996253    -0.20200
C578        C  0.18183798  0.33064352  0.81570518    -0.12500
C579        C  0.18818768  0.36132478  0.83418075     0.13200
C580        C  0.16275927  0.37471450  0.85553505    -0.23000
C581        C  0.09131448  0.30963732  0.84446502    -0.06000
H582        H  0.14470415  0.29109246  0.80602473     0.14700
C583        C  0.22166062  0.37989745  0.83256435    -0.16200
H584        H  0.16742818  0.39811409  0.86962771     0.09000
H585        H  0.04143554  0.43644264  0.83741544     0.06900
H586        H  0.04693553  0.46458935  0.87476329     0.08100
H587        H  0.01309076  0.43302295  0.87533850     0.07100
H588        H  0.15120881  0.35066622  0.93513171     0.02000
H589        H  0.12036664  0.31780467  0.92510929     0.02500
H590        H  0.11850704  0.33986850  0.96737749     0.06000
H591        H  0.09043863  0.28609892  0.82864611     0.05000
H592        H  0.07143044  0.32554181  0.83387878    -0.00800
H593        H  0.08594325  0.30338376  0.87342985     0.00700
H594        H  0.22734988  0.38787649  0.80415356     0.04300
H595        H  0.24129364  0.36367075  0.84289049     0.06300
H596        H  0.22224312  0.40261511  0.84976345     0.07100
C597        C  0.40119711  0.41499910  0.62906030    -0.22500
C598        C  0.36915341  0.40882320  0.61458213     0.09500
C599        C  0.36009875  0.42383650  0.58155462     0.09900
C600        C  0.38431286  0.44274981  0.56208846    -0.17400
C601        C  0.41748761  0.44698840  0.57490179    -0.27800
C602        C  0.42556764  0.43405967  0.60987201     0.18200
C603        C  0.34646292  0.38459914  0.63343243     0.12200
C604        C  0.32510806  0.41923239  0.56655659    -0.12200
H605        H  0.37744247  0.45318826  0.53598035     0.12500
C606        C  0.45956645  0.43958510  0.62732529    -0.23000
H607        H  0.40746250  0.40377853  0.65499438     0.08100
C608        C  0.34758647  0.35037495  0.62590272     0.04400
C609        C  0.32843368  0.32773109  0.64708217    -0.20200
C610        C  0.30873697  0.33839272  0.67630281    -0.12500
C611        C  0.30653483  0.37312092  0.68261183     0.13200
C612        C  0.32539738  0.39571210  0.66084149    -0.23000
C613        C  0.36984323  0.33770489  0.59623632    -0.06000
H614        H  0.33018268  0.30139413  0.64172406     0.14700
C615        C  0.28510712  0.38694050  0.71238993    -0.16200
H616        H  0.32469027  0.42218306  0.66601562     0.09000
H617        H  0.47886901  0.42699877  0.61130237     0.06900
H618        H  0.46022527  0.42928299  0.65547130     0.08100
H619        H  0.46594087  0.46664876  0.62914609     0.07100
H620        H  0.30692273  0.42871271  0.58650065     0.02000
H621        H  0.31913509  0.39246120  0.56150772     0.02500
H622        H  0.32211107  0.43287907  0.54044907     0.06000
H623        H  0.36771485  0.31018700  0.59392295     0.05000
H624        H  0.39639120  0.34493765  0.60223368    -0.00800
H625        H  0.36275832  0.34845887  0.56953812     0.00700
H626        H  0.29497870  0.38008001  0.73958084     0.04300
H627        H  0.25884022  0.37734191  0.70949221     0.06300
H628        H  0.28494430  0.41451825  0.71131997     0.07100
O629        O  0.43450993  0.97221542  0.01649642    -0.80200
O630        O  0.07543907  0.52891096  0.01395822    -0.80200
O631        O  0.04056397  0.95968202  0.05355395    -0.80200
O632        O  0.48665566  0.57927638  0.03804031    -0.80100
O633        O  0.07760536  0.96749378  0.00965126    -0.80300
O634        O  0.45414420  0.53353608  0.03702823    -0.80200
O635        O  0.03487309  0.53218442  0.05450397    -0.80200
O636        O  0.47370900  0.96411622  0.05617191    -0.80200
C637        C  0.44305490  0.96211160  0.04787497     1.09500
C638        C  0.06556923  0.53647239  0.04586633     1.09400
C639        C  0.07022405  0.95807153  0.04207024     1.09500
C640        C  0.46056638  0.56336323  0.04924517     1.09400
O641        O  0.42269140  0.52450096  0.47110115    -0.80200
O642        O  0.04203855  0.96384606  0.44161775    -0.80200
O643        O  0.46945949  0.93099847  0.48360216    -0.80200
O644        O  0.03524321  0.57080858  0.48620362    -0.80200
O645        O  0.04171372  0.53375515  0.44412678    -0.80200
O646        O  0.46473115  0.97375150  0.44639203    -0.80200
O647        O  0.47018772  0.55495840  0.47014715    -0.80100
O648        O  0.03549823  0.92503674  0.48349676    -0.80200
Co649      Co  0.46317816  0.00538533  0.98785098     1.51500
Co650      Co  0.05776033  0.49999928  0.47835303     1.51700
Co651      Co  0.50627194  0.94915107  0.01973960     1.51600
Co652      Co  0.50127372  0.54241170  0.51424003     1.51500
O653        O  0.51076849  0.99582409  0.99959338    -1.42100
C654        C  0.43920954  0.55032764  0.46032967     1.09500
C655        C  0.04383598  0.93385452  0.45123912     1.09500
C656        C  0.45987206  0.94295918  0.45313758     1.09500
C657        C  0.04355560  0.56380882  0.45376163     1.09500
O658        O  0.32234970  0.78367991  0.26501262    -0.80200
O659        O  0.18151837  0.72176936  0.26406259    -0.80200
O660        O  0.23131651  0.83098158  0.27957364    -0.80200
O661        O  0.28738506  0.71011843  0.30517584    -0.80100
O662        O  0.19966780  0.78473207  0.28163854    -0.80300
O663        O  0.32662867  0.71664562  0.26381123    -0.80200
O664        O  0.21910125  0.71314017  0.30529070    -0.80200
O665        O  0.27937862  0.78861677  0.30228030    -0.80200
C666        C  0.31056424  0.79250015  0.29568576     1.09500
C667        C  0.18866511  0.71227042  0.29591239     1.09400
C668        C  0.20549817  0.81540008  0.29161323     1.09500
C669        C  0.31742961  0.70712356  0.29562074     1.09400
O670        O  0.29369839  0.71410450  0.19312569    -0.80200
O671        O  0.17151075  0.77176436  0.21572229    -0.80200
O672        O  0.28206951  0.82003872  0.23302864    -0.80200
O673        O  0.21770004  0.68112021  0.23334385    -0.80200
O674        O  0.21397860  0.72301208  0.19491626    -0.80200
O675        O  0.29173839  0.78266176  0.19226323    -0.80200
O676        O  0.28495924  0.67593563  0.23539605    -0.80100
O677        O  0.21872826  0.80232391  0.21398133    -0.80200
Co678      Co  0.30544873  0.74917997  0.22877012     1.51500
Co679      Co  0.21068105  0.75447621  0.23615451     1.51700
Co680      Co  0.24837172  0.79164141  0.26031178     1.51600
Co681      Co  0.25241739  0.69810436  0.26952391     1.51500
O682        O  0.25798858  0.74460888  0.24860118    -1.42100
C683        C  0.29521803  0.68428025  0.20352831     1.09500
C684        C  0.18789539  0.79695756  0.20345122     1.09500
C685        C  0.29235601  0.81293849  0.20154705     1.09500
C686        C  0.20973245  0.69218279  0.20194678     1.09500
C687        C  0.15894249  0.65533087  0.12129342    -0.22500
C688        C  0.15440767  0.62214899  0.13260677     0.09500
C689        C  0.17021848  0.61160240  0.16470038     0.09900
C690        C  0.18924245  0.63474222  0.18551892    -0.17400
C691        C  0.19270573  0.66860978  0.17547719    -0.27800
C692        C  0.17779315  0.67875611  0.14221001     0.18200
C693        C  0.13155487  0.59920427  0.11158657     0.12200
C694        C  0.16601558  0.57610629  0.17768431    -0.12200
H695        H  0.20070386  0.62625921  0.21048233     0.12500
C696        C  0.18084706  0.71409771  0.12859578    -0.23000
H697        H  0.14688800  0.66308177  0.09634366     0.08100
C698        C  0.09645862  0.60065427  0.11472800     0.04400
C699        C  0.07567964  0.57869583  0.09433822    -0.20200
C700        C  0.08902241  0.55515481  0.07073892    -0.12500
C701        C  0.12435986  0.55266727  0.06901917     0.13200
C702        C  0.14509291  0.57493095  0.08927794    -0.23000
C703        C  0.08089531  0.62531531  0.13976029    -0.06000
H704        H  0.04876610  0.58074160  0.09600717     0.14700
C705        C  0.14053305  0.52623166  0.04679563    -0.16200
H706        H  0.17209234  0.57351389  0.08767047     0.09000
H707        H  0.16937183  0.73091383  0.14845961     0.06900
H708        H  0.16782723  0.71720850  0.10208003     0.08100
H709        H  0.20764428  0.72158346  0.12457135     0.07100
H710        H  0.17618470  0.55911660  0.15702569     0.02000
H711        H  0.13903838  0.56957600  0.18203943     0.02500
H712        H  0.17941536  0.57209755  0.20379735     0.06000
H713        H  0.05311042  0.62272786  0.13947479     0.05000
H714        H  0.08820034  0.65103497  0.13110131    -0.00800
H715        H  0.08956000  0.62130129  0.16818015     0.00700
H716        H  0.13660778  0.53054709  0.01722713     0.04300
H717        H  0.12987440  0.50134248  0.05465657     0.06300
H718        H  0.16800848  0.52624396  0.05145168     0.07100
C719        C  0.08455205  0.60782515  0.37149370    -0.22500
C720        C  0.09245932  0.63916115  0.38625873     0.09500
C721        C  0.08066108  0.64715252  0.42122712     0.09900
C722        C  0.06334036  0.62253966  0.44193078    -0.17400
C723        C  0.05754737  0.59001528  0.42843854    -0.27800
C724        C  0.06734593  0.58305375  0.39193990     0.18200
C725        C  0.11641230  0.66141465  0.36605976     0.12200
C726        C  0.08667911  0.68153970  0.43670375    -0.12200
H727        H  0.05532620  0.62854508  0.46929327     0.12500
C728        C  0.06088526  0.54958462  0.37416858    -0.23000
H729        H  0.09345402  0.60222707  0.34432759     0.08100
C730        C  0.15100695  0.66095555  0.37346397     0.04400
C731        C  0.17352003  0.67941162  0.35133908    -0.20200
C732        C  0.16258820  0.69737689  0.32085052    -0.12500
C733        C  0.12758088  0.69826098  0.31390854     0.13200
C734        C  0.10501239  0.68034682  0.33681553    -0.23000
C735        C  0.16438568  0.63956131  0.40358645    -0.06000
H736        H  0.20007072  0.67836761  0.35701106     0.14700
C737        C  0.11350540  0.71731831  0.28230123    -0.16200
H738        H  0.07836864  0.68014558  0.33120117     0.09000
H739        H  0.07524999  0.53039140  0.38838264     0.06900
H740        H  0.06888307  0.54964457  0.34513458     0.08100
H741        H  0.03368120  0.54275200  0.37477289     0.07100
H742        H  0.07498281  0.69996483  0.41863120     0.02000
H743        H  0.11391065  0.68777996  0.43865550     0.02500
H744        H  0.07574248  0.68371087  0.46440995     0.06000
H745        H  0.19216254  0.64142352  0.40502742     0.05000
H746        H  0.15671133  0.61311115  0.39871573    -0.00800
H747        H  0.15450106  0.64731356  0.43037278     0.00700
H748        H  0.12142515  0.70639132  0.25606498     0.04300
H749        H  0.12216567  0.74381072  0.28370068     0.06300
H750        H  0.08568888  0.71645139  0.28251346     0.07100
C751        C  0.11213297  0.91918154  0.12402793    -0.22500
C752        C  0.13067790  0.89484244  0.10700699     0.09500
C753        C  0.13250871  0.89411847  0.06855818     0.09900
C754        C  0.11492180  0.91726833  0.04794844    -0.17400
C755        C  0.09471878  0.94052506  0.06491019    -0.27800
C756        C  0.09436307  0.94218834  0.10358762     0.18200
C757        C  0.14618888  0.86921649  0.13008365     0.12200
C758        C  0.15172511  0.86793122  0.04935028    -0.12200
H759        H  0.11526424  0.91575502  0.01842478     0.12500
C760        C  0.07561787  0.96785437  0.12431890    -0.23000
H761        H  0.11109790  0.91990279  0.15360261     0.08100
C762        C  0.17935986  0.87305581  0.14292301     0.04400
C763        C  0.19225417  0.84856226  0.16572639    -0.20200
C764        C  0.17262275  0.82047704  0.17704154    -0.15100
C765        C  0.13902841  0.81690710  0.16411151     0.13200
C766        C  0.12655498  0.84118234  0.14057021    -0.23000
C767        C  0.20095564  0.90338245  0.13330760    -0.06000
H768        H  0.21779935  0.85191650  0.17535312     0.14700
C769        C  0.11560776  0.78830786  0.17521805    -0.16200
H770        H  0.10097743  0.83867703  0.13073299     0.09000
H771        H  0.09285699  0.98078380  0.14394534     0.06900
H772        H  0.05465990  0.95544737  0.13970393     0.08100
H773        H  0.06558376  0.98735775  0.10650764     0.07100
H774        H  0.14076112  0.84287635  0.05613471     0.02000
H775        H  0.17834021  0.86942184  0.05800594     0.02500
H776        H  0.15105742  0.87117628  0.01929752     0.06000
H777        H  0.22621711  0.90262016  0.14592014     0.05000
H778        H  0.18894190  0.92604357  0.14321125    -0.00800
H779        H  0.20419807  0.90513867  0.10329721     0.00700
H780        H  0.11186120  0.78845654  0.20523828     0.04300
H781        H  0.12588312  0.76440993  0.16664256     0.06300
H782        H  0.09055300  0.78991034  0.16231181     0.07100
C783        C  0.41819236  0.62207356  0.11630902    -0.22500
C784        C  0.38676852  0.60573887  0.12070859     0.09500
C785        C  0.38038967  0.57491565  0.10335968     0.09900
C786        C  0.40532172  0.56144602  0.08140858    -0.17400
C787        C  0.43664285  0.57822057  0.07566771    -0.27800
C788        C  0.44313195  0.60896050  0.09395446     0.18200
C789        C  0.36040912  0.62249032  0.14185746     0.12200
C790        C  0.34701794  0.55649404  0.10754282    -0.12200
H791        H  0.39977215  0.53795986  0.06785525     0.12500
C792        C  0.47594960  0.62848008  0.09010079    -0.23000
H793        H  0.42290422  0.64572572  0.12984720     0.08100
C794        C  0.35733771  0.61894651  0.18005688     0.04400
C795        C  0.33369589  0.63734850  0.19894853    -0.20200
C796        C  0.31406347  0.66055162  0.18088362    -0.12500
C797        C  0.31631977  0.66307941  0.14228498     0.13200
C798        C  0.33920886  0.64376409  0.12335083    -0.23000
C799        C  0.37984954  0.59667694  0.20105598    -0.06000
H800        H  0.33202708  0.63500194  0.22837077     0.14700
C801        C  0.29474161  0.68593279  0.12071842    -0.16200
H802        H  0.34144919  0.64610251  0.09395488     0.09000
H803        H  0.47690456  0.65107722  0.10747978     0.06900
H804        H  0.47945583  0.63679073  0.06139831     0.08100
H805        H  0.49689515  0.61290942  0.09856188     0.07100
H806        H  0.32680411  0.57198809  0.09693731     0.02000
H807        H  0.34225489  0.55087316  0.13679784     0.02500
H808        H  0.34608992  0.53262718  0.09233301     0.06000
H809        H  0.37444134  0.59699854  0.23079450     0.05000
H810        H  0.40639417  0.60514066  0.19707274    -0.00800
H811        H  0.37631964  0.57069810  0.19126723     0.00700
H812        H  0.29787093  0.68254036  0.09084837     0.04300
H813        H  0.30172709  0.71228248  0.12686518     0.06300
H814        H  0.26793791  0.68067444  0.12741187     0.07100
C815        C  0.38792820  0.82891651  0.34510376    -0.22500
C816        C  0.37433433  0.85554742  0.36365536     0.09500
C817        C  0.33948294  0.85975225  0.36224493     0.09900
C818        C  0.31916888  0.83794140  0.34104532    -0.17400
C819        C  0.33276977  0.81173977  0.32140839    -0.27800
C820        C  0.36764802  0.80671533  0.32436585     0.18200
C821        C  0.39692857  0.87762032  0.38594686     0.12200
C822        C  0.32372621  0.88704232  0.38341697    -0.12200
H823        H  0.29257379  0.84192324  0.33910493     0.12500
C824        C  0.38359577  0.77732076  0.30723339    -0.23000
H825        H  0.41462193  0.82535991  0.34719565     0.08100
C826        C  0.40826407  0.86740497  0.42040640     0.04400
C827        C  0.42953310  0.88886670  0.44075741    -0.20200
C828        C  0.43961843  0.92082863  0.42793764    -0.12500
C829        C  0.42821718  0.93092016  0.39298300     0.13200
C830        C  0.40719420  0.90903659  0.37246555    -0.23000
C831        C  0.39720256  0.83407518  0.43610086    -0.06000
H832        H  0.43764846  0.88065731  0.46740744     0.14700
C833        C  0.43771330  0.96450899  0.37689676    -0.16200
H834        H  0.39835690  0.91656190  0.34582702     0.09000
H835        H  0.41047297  0.77613545  0.31470992     0.06900
H836        H  0.38223916  0.77873675  0.27705649     0.08100
H837        H  0.37067294  0.75413574  0.31710266     0.07100
H838        H  0.33405286  0.91162291  0.37406009     0.02000
H839        H  0.32910007  0.88405163  0.41296264     0.02500
H840        H  0.29610843  0.88655669  0.37975670     0.06000
H841        H  0.40748034  0.83033150  0.46391990     0.05000
H842        H  0.40592650  0.81384131  0.41840685    -0.00800
H843        H  0.36944798  0.83222133  0.43789573     0.00700
H844        H  0.42752654  0.96736455  0.34889576     0.04300
H845        H  0.46538977  0.96781289  0.37522094     0.06300
H846        H  0.42741004  0.98444811  0.39388438     0.07100
C847        C  0.41615437  0.63150599  0.41399385    -0.22500
C848        C  0.39153252  0.62010421  0.38941215     0.09500
C849        C  0.38303917  0.58575651  0.38745385     0.09900
C850        C  0.39891599  0.56358912  0.41088106    -0.17400
C851        C  0.42361209  0.57486772  0.43579239    -0.27800
C852        C  0.43243047  0.60946647  0.43713368     0.18200
C853        C  0.37421310  0.64475578  0.36677668     0.12200
C854        C  0.35729482  0.57257134  0.36053035    -0.12200
H855        H  0.39219015  0.53724689  0.40948843     0.12500
C856        C  0.45797330  0.62382250  0.46365458    -0.23000
H857        H  0.42235831  0.65797188  0.41532007     0.08100
C858        C  0.34453699  0.65880707  0.37886515     0.04400
C859        C  0.32769921  0.68027176  0.35566140    -0.20200
C860        C  0.33993745  0.68866579  0.32056316    -0.12500
C861        C  0.37136777  0.67649881  0.30978905     0.13200
C862        C  0.38781093  0.65442134  0.33296926    -0.23000
C863        C  0.33054964  0.65100312  0.41625482    -0.06000
H864        H  0.30430428  0.68999178  0.36493901     0.14700
C865        C  0.38790457  0.68610639  0.27411389    -0.16200
H866        H  0.41124303  0.64421248  0.32451187     0.09000
H867        H  0.46052473  0.65135619  0.46169162     0.06900
H868        H  0.48290906  0.61410524  0.45775180     0.08100
H869        H  0.45025177  0.61745429  0.49196175     0.07100
H870        H  0.36541965  0.57913560  0.33235524     0.02000
H871        H  0.33280392  0.58359187  0.36598224     0.02500
H872        H  0.35380841  0.54508861  0.36226258     0.06000
H873        H  0.30722811  0.66427112  0.42156735     0.05000
H874        H  0.34922142  0.65872724  0.43738426    -0.00800
H875        H  0.32470481  0.62390987  0.41886342     0.00700
H876        H  0.41263994  0.67481861  0.27105978     0.04300
H877        H  0.39214586  0.71347100  0.27265235     0.06300
H878        H  0.37210806  0.67747833  0.25087332     0.07100
C879        C  0.08503115  0.89662925  0.36816108    -0.22500
C880        C  0.10783029  0.87604473  0.38513193     0.09500
C881        C  0.10664985  0.87160205  0.42329707     0.09900
C882        C  0.08297497  0.88838732  0.44375967    -0.17400
C883        C  0.06129094  0.91057795  0.42714300    -0.27800
C884        C  0.06152780  0.91372505  0.38856174     0.18200
C885        C  0.13312776  0.85994936  0.36234144     0.12200
C886        C  0.13154723  0.85064498  0.44265336    -0.12200
H887        H  0.08308019  0.88591690  0.47322152     0.12500
C888        C  0.03728746  0.93449154  0.36788998    -0.23000
H889        H  0.08572781  0.89952002  0.33872592     0.08100
C890        C  0.12759040  0.82752943  0.34867582     0.04400
C891        C  0.15207903  0.81362383  0.32668584    -0.20200
C892        C  0.18181891  0.83156480  0.31703377    -0.12500
C893        C  0.18705960  0.86447013  0.33072762     0.13200
C894        C  0.16269720  0.87798548  0.35337921    -0.23000
C895        C  0.09545033  0.80789208  0.35653320    -0.06000
H896        H  0.14752353  0.78866848  0.31646251     0.14700
C897        C  0.21784534  0.88587851  0.32176395    -0.16200
H898        H  0.16648375  0.90301830  0.36390164     0.09000
H899        H  0.02492104  0.91918940  0.34615498     0.06900
H900        H  0.05101919  0.95602007  0.35502364     0.08100
H901        H  0.01701207  0.94361751  0.38530675     0.07100
H902        H  0.15725059  0.86150898  0.43842084     0.02000
H903        H  0.13018413  0.82490330  0.43190411     0.02500
H904        H  0.12663155  0.84930187  0.47243641     0.06000
H905        H  0.09500732  0.78300543  0.34344725     0.05000
H906        H  0.07389213  0.82152835  0.34590457    -0.00800
H907        H  0.09236440  0.80418967  0.38636193     0.00700
H908        H  0.21918179  0.89051098  0.29190348     0.04300
H909        H  0.24060601  0.87349975  0.33117720     0.06300
H910        H  0.21758905  0.91049658  0.33538816     0.07100
C911        C  0.40290377  0.90879186  0.12403114    -0.22500
C912        C  0.36916466  0.90843750  0.11388332     0.09500
C913        C  0.35914087  0.92854414  0.08466241     0.09900
C914        C  0.38359039  0.94691787  0.06454627    -0.17400
C915        C  0.41794386  0.94587028  0.07320834    -0.27800
C916        C  0.42745110  0.92726098  0.10440752     0.18200
C917        C  0.34550815  0.88501048  0.13314164     0.12200
C918        C  0.32274594  0.93000126  0.07439472    -0.12200
H919        H  0.37581339  0.96153815  0.04140320     0.12500
C920        C  0.46330928  0.92559190  0.11705989    -0.23000
H921        H  0.41016581  0.89357399  0.14694552     0.08100
C922        C  0.34308078  0.85111189  0.12351589     0.04400
C923        C  0.32427095  0.82866155  0.14540858    -0.20200
C924        C  0.30773329  0.83909794  0.17702362    -0.12500
C925        C  0.30844120  0.87372143  0.18522369     0.13200
C926        C  0.32756147  0.89609206  0.16323420    -0.23000
C927        C  0.36089045  0.83849915  0.09039381    -0.06000
H928        H  0.32352102  0.80253219  0.13829177     0.14700
C929        C  0.28956519  0.88763138  0.21699268    -0.16200
H930        H  0.32934858  0.92228591  0.17011802     0.09000
H931        H  0.47867540  0.91415189  0.09561476     0.06900
H932        H  0.46553334  0.91022626  0.14210105     0.08100
H933        H  0.47355870  0.95093806  0.12365765     0.07100
H934        H  0.30830306  0.93915986  0.09794113     0.02000
H935        H  0.31273389  0.90482403  0.06675924     0.02500
H936        H  0.31903156  0.94699655  0.05094701     0.06000
H937        H  0.35605924  0.81136488  0.08646736     0.05000
H938        H  0.38832500  0.84317150  0.09335599    -0.00800
H939        H  0.35209534  0.85148825  0.06562501     0.00700
H940        H  0.29991413  0.87862262  0.24315965     0.04300
H941        H  0.26257438  0.88017766  0.21484969     0.06300
H942        H  0.29157433  0.91523575  0.21758960     0.07100
O943        O  0.43410405  0.97103194  0.51641555    -0.80200
O944        O  0.07597352  0.53361756  0.51490576    -0.80200
O945        O  0.04073428  0.95699228  0.55380061    -0.80200
O946        O  0.48454284  0.58070975  0.53704298    -0.80100
O947        O  0.07843392  0.96522984  0.51048662    -0.80300
O948        O  0.45264395  0.53457978  0.53672146    -0.80200
O949        O  0.03485649  0.53604793  0.55484789    -0.80200
O950        O  0.47319212  0.96207638  0.55584498    -0.80200
C951        C  0.44263451  0.96005736  0.54734796     1.09500
C952        C  0.06563001  0.54056301  0.54680989     1.09400
C953        C  0.07067633  0.95626908  0.54296462     1.09500
C954        C  0.45867458  0.56461237  0.54853729     1.09400
O955        O  0.42447173  0.52477010  0.97102004    -0.80200
O956        O  0.04028852  0.96637660  0.94135456    -0.80200
O957        O  0.47076603  0.93249425  0.98447735    -0.80200
O958        O  0.03502082  0.56731880  0.98651351    -0.80200
O959        O  0.04071546  0.53088177  0.94365606    -0.80200
O960        O  0.46600197  0.97429118  0.94615963    -0.80200
O961        O  0.47222321  0.55478944  0.97087955    -0.80100
O962        O  0.03467199  0.92737282  0.98305679    -0.80200
Co963      Co  0.46288415  0.00423577  0.48838698     1.51500
Co964      Co  0.05594220  0.49614409  0.97724324     1.51700
Co965      Co  0.50528106  0.94679769  0.51924989     1.51600
Co966      Co  0.50287261  0.54101586  0.01490296     1.51500
O967        O  0.51032407  0.99341045  0.49901379    -1.42100
C968        C  0.44122050  0.55068895  0.96098673     1.09500
C969        C  0.04280289  0.93642734  0.95072856     1.09500
C970        C  0.46159760  0.94353353  0.95350971     1.09500
C971        C  0.04341473  0.56071342  0.95401797     1.09500
O972        O  0.32298550  0.78421524  0.76662956    -0.80200
O973        O  0.18194964  0.72287894  0.76733432    -0.80200
O974        O  0.23180676  0.83212288  0.78066088    -0.80200
O975        O  0.28846881  0.71116535  0.80804169    -0.80100
O976        O  0.20015926  0.78592119  0.78337041    -0.80300
O977        O  0.32722085  0.71717626  0.76604459    -0.80200
O978        O  0.21987230  0.71470687  0.80841301    -0.80200
O979        O  0.28023442  0.78988531  0.80406134    -0.80200
C980        C  0.31148428  0.79306366  0.79744299     1.09500
C981        C  0.18935687  0.71334626  0.79917060     1.09400
C982        C  0.20560934  0.81686219  0.79230034     1.09500
C983        C  0.31839500  0.70798658  0.79807718     1.09400
O984        O  0.29385874  0.71389332  0.69575209    -0.80200
O985        O  0.17228527  0.77268311  0.71777370    -0.80200
O986        O  0.28291842  0.82039256  0.73426761    -0.80200
O987        O  0.21811488  0.68197023  0.73720940    -0.80200
O988        O  0.21444444  0.72325807  0.69799135    -0.80200
O989        O  0.29212342  0.78247022  0.69395757    -0.80200
O990        O  0.28525325  0.67620755  0.73862197    -0.80100
O991        O  0.21980062  0.80272245  0.71566617    -0.80200
Co992      Co  0.30589204  0.74939201  0.73084237     1.51500
Co993      Co  0.21123583  0.75515500  0.73859113     1.51700
Co994      Co  0.24916874  0.79250111  0.76213300     1.51600
Co995      Co  0.25309522  0.69905765  0.77278676     1.51500
O996        O  0.25860652  0.74528083  0.75112936    -1.42100
C997        C  0.29499441  0.68408947  0.70641571     1.09500
C998        C  0.18879283  0.79791999  0.70569819     1.09500
C999        C  0.29285213  0.81286423  0.70275452     1.09500
C1000       C  0.20985055  0.69265483  0.70577659     1.09500
C1001       C  0.16138827  0.65481442  0.62432107    -0.22500
C1002       C  0.15272447  0.62313186  0.63811852     0.09500
C1003       C  0.16435910  0.61374005  0.67269199     0.09900
C1004       C  0.18374548  0.63664695  0.69328284    -0.17400
C1005       C  0.19177713  0.66909049  0.68035651    -0.27800
C1006       C  0.18064374  0.67806053  0.64494359     0.18200
C1007       C  0.13027990  0.60055980  0.61651128     0.12200
C1008       C  0.15580545  0.57966559  0.68806017    -0.12200
H1009       H  0.19199770  0.62914337  0.72013253     0.12500
C1010       C  0.18829012  0.71193134  0.62858609    -0.23000
H1011       H  0.15231934  0.66158842  0.59752637     0.08100
C1012       C  0.09519586  0.60225458  0.61877651     0.04400
C1013       C  0.07481019  0.58097436  0.59720214    -0.20200
C1014       C  0.08864728  0.55842648  0.57274466    -0.12500
C1015       C  0.12402686  0.55602927  0.57154540     0.13200
C1016       C  0.14430338  0.57709947  0.59363136    -0.23000
C1017       C  0.07932580  0.62693647  0.64354972    -0.06000
H1018       H  0.04787149  0.58304251  0.59837397     0.14700
C1019       C  0.14080395  0.53129523  0.54755006    -0.16200
H1020       H  0.17133100  0.57570090  0.59267100     0.09000
H1021       H  0.17641477  0.73129222  0.64507224     0.06900
H1022       H  0.17845526  0.71384870  0.60032331     0.08100
H1023       H  0.21579021  0.71696404  0.62744538     0.07100
H1024       H  0.16585775  0.56040595  0.66992312     0.02000
H1025       H  0.12820334  0.57575967  0.69008146     0.02500
H1026       H  0.16660128  0.57639209  0.71572342     0.06000
H1027       H  0.05154629  0.62500625  0.64204865     0.05000
H1028       H  0.08759124  0.65260387  0.63556919    -0.00800
H1029       H  0.08685709  0.62239926  0.67224873     0.00700
H1030       H  0.13709768  0.53745312  0.51834409     0.04300
H1031       H  0.13046480  0.50585082  0.55341469     0.06300
H1032       H  0.16825585  0.53140820  0.55239822     0.07100
C1033       C  0.08711691  0.60553966  0.87377402    -0.22500
C1034       C  0.09531934  0.63651431  0.88937026     0.09500
C1035       C  0.08288703  0.64401937  0.92424392     0.09900
C1036       C  0.06515749  0.61914211  0.94419201    -0.17400
C1037       C  0.05867554  0.58708758  0.92969020    -0.27800
C1038       C  0.06868213  0.58080921  0.89312964     0.18200
C1039       C  0.11866244  0.65962809  0.86924801     0.12200
C1040       C  0.08783243  0.67839777  0.94008448    -0.12200
H1041       H  0.05680037  0.62474247  0.97154263     0.12500
C1042       C  0.06056684  0.54828710  0.87399025    -0.23000
H1043       H  0.09610489  0.60038591  0.84652701     0.08100
C1044       C  0.15321866  0.66121605  0.87724495     0.04400
C1045       C  0.17508612  0.68053361  0.85509900    -0.20200
C1046       C  0.16363117  0.69760227  0.82417588    -0.12500
C1047       C  0.12859769  0.69671245  0.81692011     0.13200
C1048       C  0.10669233  0.67768596  0.83958963    -0.23000
C1049       C  0.16741401  0.64103408  0.90792360    -0.06000
H1050       H  0.20163204  0.68091572  0.86115902     0.14700
C1051       C  0.11376587  0.71529370  0.78542213    -0.16200
H1052       H  0.08010900  0.67610555  0.83360764     0.09000
H1053       H  0.07375265  0.52783738  0.88743121     0.06900
H1054       H  0.06865637  0.54895579  0.84498682     0.08100
H1055       H  0.03308501  0.54288422  0.87428118     0.07100
H1056       H  0.07585185  0.69659481  0.92196320     0.02000
H1057       H  0.11483811  0.68543352  0.94254304     0.02500
H1058       H  0.07642506  0.68009728  0.96761658     0.06000
H1059       H  0.19504442  0.64476119  0.91001595     0.05000
H1060       H  0.16158614  0.61418666  0.90314459    -0.00800
H1061       H  0.15653942  0.64821340  0.93442143     0.00700
H1062       H  0.12243565  0.70511020  0.75911676     0.04300
H1063       H  0.12108719  0.74210172  0.78730788     0.06300
H1064       H  0.08596518  0.71305082  0.78540100     0.07100
C1065       C  0.11252245  0.92100076  0.62681972    -0.22500
C1066       C  0.13224907  0.89710185  0.61075677     0.09500
C1067       C  0.13499158  0.89578682  0.57241410     0.09900
C1068       C  0.11692589  0.91776572  0.55087152    -0.17400
C1069       C  0.09539983  0.94036301  0.56682585    -0.27800
C1070       C  0.09423776  0.94284012  0.60543788     0.18200
C1071       C  0.14733487  0.87186694  0.63451659     0.12200
C1072       C  0.15567757  0.87009646  0.55430550    -0.12200
H1073       H  0.11787232  0.91567392  0.52139774     0.12500
C1074       C  0.07401398  0.96803417  0.62513748    -0.23000
H1075       H  0.11077254  0.92210093  0.65633914     0.08100
C1076       C  0.17981856  0.87637132  0.64905923     0.04400
C1077       C  0.19258501  0.85154505  0.67149195    -0.20200
C1078       C  0.17350874  0.82233546  0.68040506    -0.15100
C1079       C  0.14041554  0.81841902  0.66622432     0.13200
C1080       C  0.12806809  0.84311017  0.64322398    -0.23000
C1081       C  0.20085962  0.90750555  0.64124112    -0.06000
H1082       H  0.21762098  0.85536986  0.68249749     0.14700
C1083       C  0.11752737  0.78880937  0.67519592    -0.16200
H1084       H  0.10294171  0.84020105  0.63213748     0.09000
H1085       H  0.09044059  0.98221206  0.64457503     0.06900
H1086       H  0.05347086  0.95505155  0.64064299     0.08100
H1087       H  0.06320538  0.98654933  0.60664055     0.07100
H1088       H  0.14565537  0.84478143  0.56149122     0.02000
H1089       H  0.18208084  0.87293208  0.56355005     0.02500
H1090       H  0.15540417  0.87264967  0.52415198     0.06000
H1091       H  0.22559728  0.90722353  0.65509877     0.05000
H1092       H  0.18770988  0.92955783  0.65100823    -0.00800
H1093       H  0.20529965  0.90996349  0.61145065     0.00700
H1094       H  0.11270097  0.78782403  0.70502697     0.04300
H1095       H  0.12897528  0.76559018  0.66612177     0.06300
H1096       H  0.09287004  0.79012443  0.66133773     0.07100
C1097       C  0.41605010  0.62288009  0.61608066    -0.22500
C1098       C  0.38470892  0.60635909  0.62051572     0.09500
C1099       C  0.37838928  0.57571465  0.60277365     0.09900
C1100       C  0.40328225  0.56257651  0.58048621    -0.17400
C1101       C  0.43460546  0.57940712  0.57492742    -0.27800
C1102       C  0.44102573  0.60999995  0.59355251     0.18200
C1103       C  0.35848713  0.62249757  0.64254324     0.12200
C1104       C  0.34518880  0.55701006  0.60711909    -0.12200
H1105       H  0.39776896  0.53920612  0.56668493     0.12500
C1106       C  0.47391420  0.62944915  0.59011480    -0.23000
H1107       H  0.42075405  0.64638326  0.62993739     0.08100
C1108       C  0.35634630  0.61863390  0.68079508     0.04400
C1109       C  0.33299646  0.63670527  0.70058104    -0.20200
C1110       C  0.31271274  0.65981380  0.68329613    -0.12500
C1111       C  0.31334574  0.66188737  0.64461261     0.13200
C1112       C  0.33615392  0.64315576  0.62482703    -0.23000
C1113       C  0.37944658  0.59624884  0.70082111    -0.06000
H1114       H  0.33199995  0.63412825  0.73001539     0.14700
C1115       C  0.28972023  0.68329787  0.62388707    -0.16200
H1116       H  0.33730781  0.64538533  0.59534745     0.09000
H1117       H  0.47480921  0.65193577  0.60767030     0.06900
H1118       H  0.47768355  0.63791771  0.56150622     0.08100
H1119       H  0.49471102  0.61373693  0.59865712     0.07100
H1120       H  0.32471327  0.57253394  0.59721534     0.02000
H1121       H  0.34088509  0.55084793  0.63633121     0.02500
H1122       H  0.34420278  0.53342047  0.59140030     0.06000
H1123       H  0.37466446  0.59614838  0.73069249     0.05000
H1124       H  0.40585707  0.60490579  0.69627923    -0.00800
H1125       H  0.37584545  0.57038448  0.69068193     0.00700
H1126       H  0.29162980  0.67951199  0.59394816     0.04300
H1127       H  0.29559605  0.71000775  0.62920858     0.06300
H1128       H  0.26352324  0.67680682  0.63213087     0.07100
C1129       C  0.38999016  0.82713812  0.84697360    -0.22500
C1130       C  0.37657788  0.85203877  0.86839229     0.09500
C1131       C  0.34160313  0.85553058  0.86897769     0.09900
C1132       C  0.32092358  0.83502929  0.84667624    -0.17400
C1133       C  0.33433129  0.81094666  0.82375390    -0.27800
C1134       C  0.36943900  0.80645035  0.82475893     0.18200
C1135       C  0.39978822  0.87469914  0.88925591     0.12200
C1136       C  0.32610856  0.88085356  0.89321325    -0.12200
H1137       H  0.29421296  0.83857329  0.84638308     0.12500
C1138       C  0.38563957  0.77954988  0.80335945    -0.23000
H1139       H  0.41684047  0.82427100  0.84724868     0.08100
C1140       C  0.41491099  0.86457362  0.92191822     0.04400
C1141       C  0.43631599  0.88709028  0.94079711    -0.20200
C1142       C  0.44241723  0.92012951  0.92859371    -0.12500
C1143       C  0.42764695  0.92987571  0.89512293     0.13200
C1144       C  0.40682047  0.90688309  0.87586987    -0.23000
C1145       C  0.40750955  0.83038944  0.93758104    -0.06000
H1146       H  0.44740329  0.87890645  0.96608995     0.14700
C1147       C  0.43292916  0.96436094  0.87953053    -0.16200
H1148       H  0.39530438  0.91422457  0.85044819     0.09000
H1149       H  0.41270420  0.77816424  0.80986547     0.06900
H1150       H  0.38366947  0.78431491  0.77363054     0.08100
H1151       H  0.37340845  0.75518729  0.81036841     0.07100
H1152       H  0.33538075  0.90625422  0.88543216     0.02000
H1153       H  0.33286064  0.87604154  0.92210525     0.02500
H1154       H  0.29835817  0.87984369  0.89100388     0.06000
H1155       H  0.42079164  0.82672358  0.96384622     0.05000
H1156       H  0.41556698  0.81115664  0.91819146    -0.00800
H1157       H  0.38020163  0.82681283  0.94264859     0.00700
H1158       H  0.42003447  0.96703303  0.85286773     0.04300
H1159       H  0.46005568  0.96995413  0.87508334     0.06300
H1160       H  0.42259680  0.98285033  0.89839001     0.07100
C1161       C  0.41669380  0.63324982  0.91888707    -0.22500
C1162       C  0.39399020  0.62224852  0.89197463     0.09500
C1163       C  0.38717954  0.58780949  0.88740019     0.09900
C1164       C  0.40303228  0.56508492  0.91013685    -0.17400
C1165       C  0.42582985  0.57591367  0.93722148    -0.27800
C1166       C  0.43267428  0.61062586  0.94167033     0.18200
C1167       C  0.37670873  0.64715499  0.86956230     0.12200
C1168       C  0.36284910  0.57509148  0.85875338    -0.12200
H1169       H  0.39762630  0.53867960  0.90666925     0.12500
C1170       C  0.45532631  0.62429568  0.97146547    -0.23000
H1171       H  0.42148726  0.65976866  0.92241007     0.08100
C1172       C  0.34760698  0.66200740  0.88216480     0.04400
C1173       C  0.33022035  0.68286777  0.85872330    -0.20200
C1174       C  0.34132607  0.68984105  0.82285859    -0.12500
C1175       C  0.37202816  0.67656187  0.81126546     0.13200
C1176       C  0.38901706  0.65517407  0.83473026    -0.23000
C1177       C  0.33457653  0.65538848  0.92019139    -0.06000
H1178       H  0.30728234  0.69324448  0.86843757     0.14700
C1179       C  0.38713286  0.68404917  0.77430961    -0.16200
H1180       H  0.41180810  0.64406979  0.82564957     0.09000
H1181       H  0.45645572  0.65191662  0.97176278     0.06900
H1182       H  0.48124729  0.61619779  0.96741546     0.08100
H1183       H  0.44564178  0.61570503  0.99837786     0.07100
H1184       H  0.37190327  0.58286670  0.83127126     0.02000
H1185       H  0.33788219  0.58535171  0.86360934     0.02500
H1186       H  0.35994500  0.54752687  0.85915758     0.06000
H1187       H  0.31128701  0.66868002  0.92560704     0.05000
H1188       H  0.35368058  0.66393820  0.94049814    -0.00800
H1189       H  0.32899118  0.62835268  0.92396107     0.00700
H1190       H  0.41123345  0.67171804  0.77047958     0.04300
H1191       H  0.39222590  0.71119249  0.77119717     0.06300
H1192       H  0.36998025  0.67505233  0.75243663     0.07100
C1193       C  0.08367473  0.89967875  0.86661911    -0.22500
C1194       C  0.10608784  0.87836712  0.88307554     0.09500
C1195       C  0.10447181  0.87297319  0.92108508     0.09900
C1196       C  0.08155376  0.89033227  0.94209739    -0.17400
C1197       C  0.06067698  0.91364787  0.92613012    -0.27800
C1198       C  0.06094088  0.91739050  0.88756513     0.18200
C1199       C  0.13142585  0.86241158  0.86001027     0.12200
C1200       C  0.12753212  0.84950093  0.93952930    -0.12200
H1201       H  0.08128327  0.88693966  0.97144147     0.12500
C1202       C  0.03713532  0.93954886  0.86812543    -0.23000
H1203       H  0.08453919  0.90300881  0.83725247     0.08100
C1204       C  0.12427177  0.83196600  0.84223695     0.04400
C1205       C  0.14908491  0.81784214  0.82082178    -0.20200
C1206       C  0.18094904  0.83361660  0.81601752    -0.12500
C1207       C  0.18759028  0.86491896  0.83305080     0.13200
C1208       C  0.16287835  0.87855220  0.85521382    -0.23000
C1209       C  0.09035133  0.81448273  0.84576194    -0.06000
H1210       H  0.14325814  0.79443196  0.80733195     0.14700
C1211       C  0.22033198  0.88439498  0.82814446    -0.16200
H1212       H  0.16792499  0.90221314  0.86863461     0.09000
H1213       H  0.03887265  0.93699674  0.83800413     0.06900
H1214       H  0.04302598  0.96601958  0.87469520     0.08100
H1215       H  0.01099614  0.93267977  0.87626873     0.07100
H1216       H  0.15394264  0.85858958  0.93595211     0.02000
H1217       H  0.12421433  0.82433634  0.92741110     0.02500
H1218       H  0.12223269  0.84727006  0.96916912     0.06000
H1219       H  0.08869912  0.79106770  0.82974714     0.05000
H1220       H  0.07071147  0.83090618  0.83560751    -0.00800
H1221       H  0.08530258  0.80823276  0.87481318     0.00700
H1222       H  0.22380050  0.89126125  0.79897700     0.04300
H1223       H  0.24137648  0.86941776  0.83758564     0.06300
H1224       H  0.22113967  0.90785052  0.84409210     0.07100
C1225       C  0.40189363  0.90351994  0.62001977    -0.22500
C1226       C  0.36801085  0.90587453  0.61133051     0.09500
C1227       C  0.35838611  0.92788609  0.58369040     0.09900
C1228       C  0.38324653  0.94591004  0.56394465    -0.17400
C1229       C  0.41755182  0.94283671  0.57165536    -0.27800
C1230       C  0.42686823  0.92160545  0.60074228     0.18200
C1231       C  0.34369194  0.88361550  0.63097163     0.12200
C1232       C  0.32199442  0.93212288  0.57497520    -0.12200
H1233       H  0.37577531  0.96225302  0.54212043     0.12500
C1234       C  0.46285850  0.91668456  0.61129998    -0.23000
H1235       H  0.40882403  0.88666170  0.64162496     0.08100
C1236       C  0.33909736  0.84996199  0.62097244     0.04400
C1237       C  0.32102976  0.82799824  0.64410001    -0.20200
C1238       C  0.30754266  0.83869504  0.67736728    -0.12500
C1239       C  0.31054322  0.87318133  0.68614014     0.13200
C1240       C  0.32867086  0.89505685  0.66275297    -0.23000
C1241       C  0.35400637  0.83708085  0.58624109    -0.06000
H1242       H  0.31852025  0.80199178  0.63658252     0.14700
C1243       C  0.29564910  0.88740308  0.72024249    -0.16200
H1244       H  0.33240938  0.92104571  0.67004034     0.09000
H1245       H  0.47669153  0.90649773  0.58785488     0.06900
H1246       H  0.46494096  0.89888389  0.63433075     0.08100
H1247       H  0.47489118  0.94067158  0.62021540     0.07100
H1248       H  0.30902056  0.94146039  0.59945488     0.02000
H1249       H  0.31005038  0.90789267  0.56674126     0.02500
H1250       H  0.31875515  0.95016408  0.55238212     0.06000
H1251       H  0.34808766  0.81009751  0.58247906     0.05000
H1252       H  0.38166922  0.84090008  0.58678395    -0.00800
H1253       H  0.34383524  0.85055339  0.56247540     0.00700
H1254       H  0.30764079  0.87694796  0.74482866     0.04300
H1255       H  0.26821879  0.88177077  0.72080125     0.06300
H1256       H  0.29959273  0.91486163  0.72153821     0.07100
O1257       O  0.93339829  0.46980542  0.01709137    -0.80200
O1258       O  0.57516248  0.03484490  0.01489810    -0.80200
O1259       O  0.54162479  0.45821161  0.05440724    -0.80200
O1260       O  0.98290766  0.08077287  0.03713505    -0.80100
O1261       O  0.57960724  0.46550919  0.01150808    -0.80300
O1262       O  0.95103472  0.03457619  0.03601409    -0.80200
O1263       O  0.53384827  0.03773377  0.05454183    -0.80200
O1264       O  0.97287566  0.46027174  0.05584347    -0.80200
C1265       C  0.94221050  0.45866603  0.04786339     1.09500
C1266       C  0.56469439  0.04216570  0.04663892     1.09400
C1267       C  0.57150046  0.45652318  0.04382208     1.09500
C1268       C  0.95702020  0.06444873  0.04829584     1.09400
O1269       O  0.92280301  0.02312669  0.47187953    -0.80200
O1270       O  0.54150988  0.46629383  0.44146747    -0.80200
O1271       O  0.97095833  0.43293576  0.48389414    -0.80200
O1272       O  0.53472806  0.06856223  0.48338752    -0.80200
O1273       O  0.54049296  0.03088558  0.44182074    -0.80200
O1274       O  0.96636012  0.47565298  0.44664191    -0.80200
O1275       O  0.97007248  0.05389604  0.47215464    -0.80100
O1276       O  0.53570268  0.42721276  0.48313478    -0.80200
Co1277     Co  0.96225008  0.50295862  0.98906039     1.51500
Co1278     Co  0.55653087  0.99761553  0.47670987     1.51700
Co1279     Co  0.00417705  0.44488491  0.01852325     1.51600
Co1280     Co  0.00187930  0.04014760  0.51529144     1.51500
O1281       O  0.00967790  0.49186230  0.99948518    -1.42100
C1282       C  0.93920206  0.04923584  0.46192376     1.09500
C1283       C  0.54392453  0.43632393  0.45087461     1.09500
C1284       C  0.96205776  0.44476459  0.45310877     1.09500
C1285       C  0.54297535  0.06101262  0.45110064     1.09500
O1286       O  0.82378686  0.28397621  0.26658930    -0.80200
O1287       O  0.68279699  0.22248815  0.26643967    -0.80200
O1288       O  0.73254057  0.33132713  0.28365745    -0.80200
O1289       O  0.78838681  0.21040728  0.30840589    -0.80100
O1290       O  0.70087471  0.28494476  0.28458758    -0.80300
O1291       O  0.82746027  0.21699464  0.26666658    -0.80200
O1292       O  0.71993631  0.21402112  0.30813922    -0.80200
O1293       O  0.78181987  0.28926985  0.30516659    -0.80200
C1294       C  0.81283605  0.29304049  0.29753582     1.09500
C1295       C  0.68963956  0.21273131  0.29828407     1.09400
C1296       C  0.70627754  0.31560111  0.29459384     1.09500
C1297       C  0.81839651  0.20748507  0.29854680     1.09400
O1298       O  0.79382968  0.21354785  0.19634528    -0.80200
O1299       O  0.67322311  0.27288536  0.21848752    -0.80200
O1300       O  0.78311266  0.32002255  0.23538580    -0.80200
O1301       O  0.71887510  0.18226984  0.23599067    -0.80200
O1302       O  0.71594573  0.22436941  0.19763778    -0.80200
O1303       O  0.79153720  0.28192810  0.19487831    -0.80200
O1304       O  0.78570795  0.17591427  0.23919262    -0.80100
O1305       O  0.72029532  0.30353594  0.21799112    -0.80200
Co1306     Co  0.80614446  0.24905588  0.23132711     1.51500
Co1307     Co  0.71222368  0.25530582  0.23902892     1.51700
Co1308     Co  0.74994789  0.29219456  0.26397105     1.51600
Co1309     Co  0.75333881  0.19866376  0.27275658     1.51500
O1310       O  0.75920885  0.24511842  0.25196439    -1.42100
C1311       C  0.79519837  0.18378123  0.20699359     1.09500
C1312       C  0.68960832  0.29842864  0.20713824     1.09500
C1313       C  0.79240453  0.31231717  0.20365745     1.09500
C1314       C  0.71121515  0.19361231  0.20458264     1.09500
C1315       C  0.65930542  0.15831254  0.12421278    -0.22500
C1316       C  0.65363616  0.12535046  0.13583100     0.09500
C1317       C  0.66925408  0.11433568  0.16781491     0.09900
C1318       C  0.68899921  0.13691865  0.18845677    -0.17400
C1319       C  0.69361148  0.17059649  0.17816089    -0.27800
C1320       C  0.67914833  0.18114643  0.14480898     0.18200
C1321       C  0.63056683  0.10287616  0.11465502     0.12200
C1322       C  0.66431255  0.07889492  0.18074207    -0.12200
H1323       H  0.70020390  0.12813807  0.21343061     0.12500
C1324       C  0.68389271  0.21621711  0.13065702    -0.23000
H1325       H  0.64755687  0.16631480  0.09918543     0.08100
C1326       C  0.59549683  0.10439608  0.11793073     0.04400
C1327       C  0.57461417  0.08303253  0.09684506    -0.20200
C1328       C  0.58794375  0.06014677  0.07239356    -0.12500
C1329       C  0.62329093  0.05744457  0.07086748     0.13200
C1330       C  0.64402244  0.07904949  0.09182128    -0.23000
C1331       C  0.58017783  0.12861587  0.14367995    -0.06000
H1332       H  0.54770687  0.08511204  0.09856783     0.14700
C1333       C  0.63958958  0.03153071  0.04802103    -0.16200
H1334       H  0.67102614  0.07753954  0.09026543     0.09000
H1335       H  0.67307777  0.23386318  0.15008866     0.06900
H1336       H  0.67125120  0.21954209  0.10395637     0.08100
H1337       H  0.71098215  0.22246209  0.12678368     0.07100
H1338       H  0.67393164  0.06171393  0.15994217     0.02000
H1339       H  0.63725231  0.07297489  0.18530858     0.02500
H1340       H  0.67779914  0.07450979  0.20672287     0.06000
H1341       H  0.55238568  0.12621784  0.14342580     0.05000
H1342       H  0.58769426  0.15446827  0.13567812    -0.00800
H1343       H  0.58888977  0.12393787  0.17195517     0.00700
H1344       H  0.63592064  0.03653269  0.01855129     0.04300
H1345       H  0.62892225  0.00649831  0.05516951     0.06300
H1346       H  0.66703569  0.03139167  0.05284023     0.07100
C1347       C  0.59199767  0.10349344  0.37334604    -0.22500
C1348       C  0.59464969  0.13614938  0.38621627     0.09500
C1349       C  0.57674550  0.14505349  0.41750956     0.09900
C1350       C  0.55872706  0.12023927  0.43714115    -0.17400
C1351       C  0.55788427  0.08673090  0.42591004    -0.27800
C1352       C  0.57367873  0.07861636  0.39244567     0.18200
C1353       C  0.61777973  0.15983652  0.36700284     0.12200
C1354       C  0.57694009  0.18060581  0.43026377    -0.12200
H1355       H  0.54608590  0.12701811  0.46201796     0.12500
C1356       C  0.57242966  0.04395514  0.37670248    -0.23000
H1357       H  0.60532765  0.09727459  0.34867640     0.08100
C1358       C  0.65164718  0.16366316  0.37748312     0.04400
C1359       C  0.67395668  0.18250549  0.35544306    -0.20200
C1360       C  0.66346105  0.19712437  0.32258995    -0.12500
C1361       C  0.62895450  0.19411965  0.31294326     0.13200
C1362       C  0.60667335  0.17549947  0.33539743    -0.23000
C1363       C  0.66454485  0.14671732  0.41114564    -0.06000
H1364       H  0.70008612  0.18462802  0.36335418     0.14700
C1365       C  0.61512469  0.20964930  0.27890094    -0.16200
H1366       H  0.58057545  0.17209015  0.32762758     0.09000
H1367       H  0.58505369  0.02666883  0.39535447     0.06900
H1368       H  0.58540634  0.04297713  0.34994333     0.08100
H1369       H  0.54599167  0.03533807  0.37219259     0.07100
H1370       H  0.56709040  0.19653661  0.40827482     0.02000
H1371       H  0.60282353  0.18949376  0.43712831     0.02500
H1372       H  0.56107486  0.18341362  0.45485317     0.06000
H1373       H  0.69180565  0.15198080  0.41515331     0.05000
H1374       H  0.66026056  0.11938064  0.40871618    -0.00800
H1375       H  0.65134035  0.15550453  0.43569370     0.00700
H1376       H  0.62607769  0.19832950  0.25427603     0.04300
H1377       H  0.62073082  0.23689538  0.27909170     0.06300
H1378       H  0.58750826  0.20568220  0.27691814     0.07100
C1379       C  0.61300544  0.41966286  0.12724566    -0.22500
C1380       C  0.63358691  0.39673348  0.11074341     0.09500
C1381       C  0.63668672  0.39631483  0.07238719     0.09900
C1382       C  0.61806967  0.41815663  0.05126673    -0.17400
C1383       C  0.59558904  0.43959266  0.06760997    -0.27800
C1384       C  0.59383837  0.44105319  0.10623717     0.18200
C1385       C  0.64888565  0.37139096  0.13417699     0.12200
C1386       C  0.65838861  0.37180875  0.05368851    -0.12200
H1387       H  0.61954439  0.41697149  0.02177212     0.12500
C1388       C  0.57189881  0.46498422  0.12564655    -0.23000
H1389       H  0.61097966  0.41988125  0.15674915     0.08100
C1390       C  0.68135446  0.37597725  0.14871661     0.04400
C1391       C  0.69395420  0.35145428  0.17171213    -0.20200
C1392       C  0.67459037  0.32261729  0.18138651    -0.15100
C1393       C  0.64145544  0.31872420  0.16732029     0.13200
C1394       C  0.62938001  0.34297457  0.14358849    -0.23000
C1395       C  0.70239345  0.40706820  0.14064911    -0.06000
H1396       H  0.71900815  0.35527866  0.18264764     0.14700
C1397       C  0.61808226  0.28977494  0.17741487    -0.16200
H1398       H  0.60418824  0.34011833  0.13269372     0.09000
H1399       H  0.57607215  0.46467066  0.15562454     0.06900
H1400       H  0.54506478  0.45818358  0.12095920     0.08100
H1401       H  0.57762748  0.49068611  0.11575507     0.07100
H1402       H  0.64955344  0.34604974  0.06061069     0.02000
H1403       H  0.68477080  0.37566287  0.06265211     0.02500
H1404       H  0.65769500  0.37461911  0.02354044     0.06000
H1405       H  0.72717055  0.40682461  0.15441280     0.05000
H1406       H  0.68927533  0.42916188  0.15036129    -0.00800
H1407       H  0.70677373  0.40947228  0.11085999     0.00700
H1408       H  0.61372872  0.28948357  0.20734467     0.04300
H1409       H  0.62874752  0.26610142  0.16870096     0.06300
H1410       H  0.59326385  0.29133878  0.16397569     0.07100
C1411       C  0.91330224  0.12244558  0.11497970    -0.22500
C1412       C  0.88304840  0.10451012  0.12124569     0.09500
C1413       C  0.87765489  0.07312939  0.10482092     0.09900
C1414       C  0.90266326  0.06047898  0.08232598    -0.17400
C1415       C  0.93292206  0.07873039  0.07495765    -0.27800
C1416       C  0.93816624  0.11027003  0.09192773     0.18200
C1417       C  0.85679390  0.12043525  0.14321049     0.12200
C1418       C  0.84521425  0.05333294  0.11037782    -0.12200
H1419       H  0.89797888  0.03643203  0.06967021     0.12500
C1420       C  0.96945759  0.13174451  0.08580475    -0.23000
H1421       H  0.91709715  0.14663391  0.12763014     0.08100
C1422       C  0.85516990  0.11720436  0.18153892     0.04400
C1423       C  0.83228807  0.13582707  0.20125500    -0.20200
C1424       C  0.81260447  0.15940370  0.18387743    -0.12500
C1425       C  0.81330053  0.16151217  0.14522215     0.13200
C1426       C  0.83505760  0.14165863  0.12545022    -0.23000
C1427       C  0.87866049  0.09534557  0.20176706    -0.06000
H1428       H  0.83138130  0.13344088  0.23070164     0.14700
C1429       C  0.79129177  0.18456621  0.12449609    -0.16200
H1430       H  0.83627413  0.14381382  0.09597476     0.09000
H1431       H  0.96934025  0.15508019  0.10192858     0.06900
H1432       H  0.97144345  0.13891746  0.05658843     0.08100
H1433       H  0.99179341  0.11812648  0.09424801     0.07100
H1434       H  0.82399463  0.06777518  0.10029284     0.02000
H1435       H  0.84151245  0.04785772  0.13983042     0.02500
H1436       H  0.84491376  0.02931695  0.09546317     0.06000
H1437       H  0.87444856  0.09603268  0.23172651     0.05000
H1438       H  0.90497192  0.10393015  0.19643953    -0.00800
H1439       H  0.87495341  0.06922577  0.19251800     0.00700
H1440       H  0.79289377  0.18063002  0.09456009     0.04300
H1441       H  0.79918184  0.21085660  0.12979978     0.06300
H1442       H  0.76475877  0.18004686  0.13276418     0.07100
C1443       C  0.89164705  0.32881017  0.34480880    -0.22500
C1444       C  0.87878840  0.35588162  0.36328570     0.09500
C1445       C  0.84405327  0.36076502  0.36230045     0.09900
C1446       C  0.82305949  0.33908863  0.34173381    -0.17400
C1447       C  0.83585559  0.31236927  0.32229915    -0.27800
C1448       C  0.87069544  0.30687310  0.32445483     0.18200
C1449       C  0.90192029  0.37789181  0.38499402     0.12200
C1450       C  0.82911594  0.38866642  0.38327351    -0.12200
H1451       H  0.79659363  0.34356589  0.34009284     0.12500
C1452       C  0.88597719  0.27744743  0.30653958    -0.23000
H1453       H  0.91827296  0.32481991  0.34647509     0.08100
C1454       C  0.91267584  0.36827991  0.41987343     0.04400
C1455       C  0.93340791  0.39015177  0.44023531    -0.20200
C1456       C  0.94319414  0.42212667  0.42726317    -0.12500
C1457       C  0.93275660  0.43151841  0.39169822     0.13200
C1458       C  0.91249174  0.40905835  0.37098565    -0.23000
C1459       C  0.90131745  0.33530978  0.43622371    -0.06000
H1460       H  0.94099276  0.38236038  0.46721760     0.14700
C1461       C  0.94213711  0.46503097  0.37532684    -0.16200
H1462       H  0.90411742  0.41609944  0.34400985     0.09000
H1463       H  0.91296221  0.27591544  0.31336262     0.06900
H1464       H  0.88408108  0.27925279  0.27641507     0.08100
H1465       H  0.87301320  0.25423040  0.31627411     0.07100
H1466       H  0.83987467  0.41293430  0.37347533     0.02000
H1467       H  0.83470934  0.38590215  0.41279941     0.02500
H1468       H  0.80148905  0.38874837  0.37991929     0.06000
H1469       H  0.91149891  0.33194661  0.46415629     0.05000
H1470       H  0.90990876  0.31470247  0.41898443    -0.00800
H1471       H  0.87355756  0.33373401  0.43797437     0.00700
H1472       H  0.93295440  0.46719292  0.34682082     0.04300
H1473       H  0.96974903  0.46906874  0.37484310     0.06300
H1474       H  0.93078961  0.48496478  0.39144025     0.07100
C1475       C  0.91586038  0.13079193  0.41676693    -0.22500
C1476       C  0.89165602  0.11948252  0.39162887     0.09500
C1477       C  0.88326884  0.08516044  0.38923154     0.09900
C1478       C  0.89898353  0.06287470  0.41261925    -0.17400
C1479       C  0.92354540  0.07400534  0.43778329    -0.27800
C1480       C  0.93212717  0.10859883  0.43973042     0.18200
C1481       C  0.87461773  0.14424031  0.36892730     0.12200
C1482       C  0.85768389  0.07213583  0.36203737    -0.12200
H1483       H  0.89225763  0.03656757  0.41095397     0.12500
C1484       C  0.95750399  0.12274322  0.46659669    -0.23000
H1485       H  0.92188645  0.15725645  0.41849739     0.08100
C1486       C  0.84644653  0.16034319  0.38201504     0.04400
C1487       C  0.82995807  0.18225219  0.35902797    -0.20200
C1488       C  0.84101785  0.18888122  0.32309764    -0.12500
C1489       C  0.87096487  0.17442905  0.31105950     0.13200
C1490       C  0.88700739  0.15192316  0.33403619    -0.23000
C1491       C  0.83343852  0.15395692  0.42009662    -0.06000
H1492       H  0.80769664  0.19366679  0.36908776     0.14700
C1493       C  0.88642125  0.18220981  0.27434361    -0.16200
H1494       H  0.90924987  0.13999592  0.32469553     0.09000
H1495       H  0.95957316  0.15032861  0.46537294     0.06900
H1496       H  0.98265290  0.11357958  0.46040224     0.08100
H1497       H  0.94993982  0.11562471  0.49476191     0.07100
H1498       H  0.86615200  0.07852783  0.33393498     0.02000
H1499       H  0.83326941  0.08344281  0.36718250     0.02500
H1500       H  0.85390104  0.04468215  0.36383321     0.06000
H1501       H  0.81086338  0.16824565  0.42588673     0.05000
H1502       H  0.85303177  0.16143692  0.44032032    -0.00800
H1503       H  0.82665151  0.12711515  0.42359855     0.00700
H1504       H  0.90990997  0.16891533  0.27011923     0.04300
H1505       H  0.89266355  0.20925879  0.27220437     0.06300
H1506       H  0.86900115  0.17459421  0.25215281     0.07100
C1507       C  0.58444963  0.39856416  0.36714777    -0.22500
C1508       C  0.60515517  0.37573399  0.38377745     0.09500
C1509       C  0.60287812  0.37021718  0.42170256     0.09900
C1510       C  0.58083649  0.38875780  0.44249866    -0.17400
C1511       C  0.56152788  0.41332960  0.42637750    -0.27800
C1512       C  0.56274043  0.41757902  0.38789960     0.18200
C1513       C  0.63076627  0.35973352  0.36133130     0.12200
C1514       C  0.62437825  0.34537386  0.44029097    -0.12200
H1515       H  0.58002796  0.38515660  0.47180947     0.12500
C1516       C  0.54129267  0.44190247  0.36833054    -0.23000
H1517       H  0.58616893  0.40230150  0.33788463     0.08100
C1518       C  0.62372128  0.32989630  0.34234623     0.04400
C1519       C  0.64893229  0.31618557  0.32113628    -0.20200
C1520       C  0.68123647  0.33156026  0.31840469    -0.12500
C1521       C  0.68805716  0.36168165  0.33767283     0.13200
C1522       C  0.66270146  0.37523930  0.35884509    -0.23000
C1523       C  0.58964727  0.31253205  0.34459055    -0.06000
H1524       H  0.64314021  0.29338503  0.30634871     0.14700
C1525       C  0.72190270  0.37961725  0.33682703    -0.16200
H1526       H  0.66774119  0.39821204  0.37363200     0.09000
H1527       H  0.54336380  0.43962265  0.33821445     0.06900
H1528       H  0.54923689  0.46780597  0.37546075     0.08100
H1529       H  0.51465136  0.43699452  0.37583014     0.07100
H1530       H  0.65124715  0.35273403  0.43659358     0.02000
H1531       H  0.61940699  0.32033884  0.42834706     0.02500
H1532       H  0.61913167  0.34370634  0.47000168     0.06000
H1533       H  0.58821189  0.28951321  0.32788728     0.05000
H1534       H  0.57029001  0.32931523  0.33452325    -0.00800
H1535       H  0.58401166  0.30557596  0.37333616     0.00700
H1536       H  0.72774862  0.38837439  0.30871108     0.04300
H1537       H  0.74127401  0.36272402  0.34649186     0.06300
H1538       H  0.72288362  0.40178886  0.35485626     0.07100
C1539       C  0.90245856  0.40125063  0.12018082    -0.22500
C1540       C  0.86851444  0.40352584  0.11181124     0.09500
C1541       C  0.85850167  0.42573713  0.08458624     0.09900
C1542       C  0.88304557  0.44444820  0.06516737    -0.17400
C1543       C  0.91742719  0.44141680  0.07243453    -0.27800
C1544       C  0.92714546  0.41984582  0.10105669     0.18200
C1545       C  0.84429591  0.38160884  0.13184310     0.12200
C1546       C  0.82201209  0.42911414  0.07567616    -0.12200
H1547       H  0.87528817  0.46103677  0.04370182     0.12500
C1548       C  0.96325867  0.41520602  0.11135014    -0.23000
H1549       H  0.90964955  0.38419658  0.14148950     0.08100
C1550       C  0.83861767  0.34814864  0.12164760     0.04400
C1551       C  0.81975510  0.32676743  0.14459956    -0.20200
C1552       C  0.80690137  0.33783182  0.17801836    -0.12500
C1553       C  0.81082052  0.37219993  0.18687984     0.13200
C1554       C  0.82962990  0.39352307  0.16360330    -0.23000
C1555       C  0.85332244  0.33478338  0.08704941    -0.06000
H1556       H  0.81635602  0.30085775  0.13696634     0.14700
C1557       C  0.79611714  0.38685006  0.22086459    -0.16200
H1558       H  0.83407617  0.41943203  0.17088167     0.09000
H1559       H  0.97711459  0.40536238  0.08773509     0.06900
H1560       H  0.96563921  0.39722712  0.13416234     0.08100
H1561       H  0.97507427  0.43923350  0.12046581     0.07100
H1562       H  0.80846658  0.43729011  0.10030860     0.02000
H1563       H  0.81093084  0.40479376  0.06648718     0.02500
H1564       H  0.81840028  0.44764975  0.05366841     0.06000
H1565       H  0.84634122  0.30803265  0.08307663     0.05000
H1566       H  0.88106473  0.33748514  0.08802699    -0.00800
H1567       H  0.84402804  0.34876442  0.06320257     0.00700
H1568       H  0.80783105  0.37630795  0.24556646     0.04300
H1569       H  0.76860485  0.38171447  0.22135124     0.06300
H1570       H  0.80056282  0.41425776  0.22200859     0.07100
O1571       O  0.93549691  0.47188429  0.51722901    -0.80200
O1572       O  0.57530666  0.03172815  0.51222099    -0.80200
O1573       O  0.54197247  0.45936884  0.55356936    -0.80200
O1574       O  0.98575797  0.07791307  0.53927269    -0.80100
O1575       O  0.57862718  0.46743837  0.50928438    -0.80300
O1576       O  0.95312873  0.03215693  0.53778718    -0.80200
O1577       O  0.53474462  0.03524691  0.55270279    -0.80200
O1578       O  0.97460909  0.46318557  0.55673174    -0.80200
C1579       C  0.94398313  0.46152286  0.54849339     1.09500
C1580       C  0.56545235  0.03928014  0.54410887     1.09400
C1581       C  0.57154377  0.45813944  0.54171228     1.09500
C1582       C  0.95979354  0.06179310  0.55053540     1.09400
O1583       O  0.92152373  0.02411139  0.97008731    -0.80200
O1584       O  0.54411963  0.46448267  0.94228745    -0.80200
O1585       O  0.96786869  0.42995628  0.98340237    -0.80200
O1586       O  0.53442763  0.07182361  0.98562118    -0.80200
O1587       O  0.54181579  0.03484206  0.94369888    -0.80200
O1588       O  0.96352866  0.47272394  0.94631255    -0.80200
O1589       O  0.96858936  0.05532345  0.97015495    -0.80100
O1590       O  0.53657954  0.42572009  0.98409015    -0.80200
Co1591     Co  0.96391515  0.50550767  0.48921505     1.51500
Co1592     Co  0.55744474  0.00101649  0.97832219     1.51700
Co1593     Co  0.00662936  0.44830022  0.51978357     1.51600
Co1594     Co  0.99999448  0.04282307  0.01412465     1.51500
O1595       O  0.01139097  0.49510478  0.50012179    -1.42100
C1596       C  0.93784269  0.05014687  0.95966639     1.09500
C1597       C  0.54549565  0.43446229  0.95196596     1.09500
C1598       C  0.95898300  0.44178762  0.95270177     1.09500
C1599       C  0.54342729  0.06492355  0.95338137     1.09500
O1600       O  0.82168273  0.28310125  0.76396765    -0.80200
O1601       O  0.68078841  0.22302783  0.76330342    -0.80200
O1602       O  0.73147562  0.33148655  0.77912937    -0.80200
O1603       O  0.78681624  0.21033921  0.80391065    -0.80100
O1604       O  0.69951925  0.28538940  0.78028009    -0.80300
O1605       O  0.82580041  0.21604474  0.76221946    -0.80200
O1606       O  0.71852497  0.21441145  0.80444095    -0.80200
O1607       O  0.77894343  0.28829654  0.80146805    -0.80200
C1608       C  0.81013686  0.29172916  0.79484511     1.09500
C1609       C  0.68799999  0.21392762  0.79533594     1.09400
C1610       C  0.70564372  0.31575768  0.79102253     1.09500
C1611       C  0.81665205  0.20657438  0.79404486     1.09400
O1612       O  0.79276837  0.21389408  0.69166717    -0.80200
O1613       O  0.67167629  0.27290529  0.71413411    -0.80200
O1614       O  0.78227444  0.31989655  0.73215076    -0.80200
O1615       O  0.71644042  0.18207469  0.73293283    -0.80200
O1616       O  0.71347075  0.22349761  0.69381715    -0.80200
O1617       O  0.79106636  0.28241437  0.69120112    -0.80200
O1618       O  0.78342478  0.17598376  0.73416234    -0.80100
O1619       O  0.71910547  0.30315867  0.71305164    -0.80200
Co1620     Co  0.80473201  0.24885947  0.72746756     1.51500
Co1621     Co  0.71037221  0.25513912  0.73486694     1.51700
Co1622     Co  0.74823404  0.29197299  0.75945793     1.51600
Co1623     Co  0.75146122  0.19866391  0.76862645     1.51500
O1624       O  0.75741104  0.24488421  0.74748094    -1.42100
C1625       C  0.79379656  0.18405919  0.70222657     1.09500
C1626       C  0.68843567  0.29795163  0.70205114     1.09500
C1627       C  0.79233344  0.31263681  0.70060859     1.09500
C1628       C  0.70905489  0.19277757  0.70125312     1.09500
C1629       C  0.66118860  0.15443851  0.61962399    -0.22500
C1630       C  0.65517914  0.12186778  0.63231360     0.09500
C1631       C  0.66924914  0.11199633  0.66557870     0.09900
C1632       C  0.68773408  0.13543532  0.68641278    -0.17400
C1633       C  0.69252337  0.16884978  0.67500603    -0.27800
C1634       C  0.67963206  0.17816330  0.64045777     0.18200
C1635       C  0.63214689  0.09915451  0.61156719     0.12200
C1636       C  0.66398470  0.07690350  0.67952850    -0.12200
H1637       H  0.69775351  0.12754205  0.71235629     0.12500
C1638       C  0.68438103  0.21290201  0.62538121    -0.23000
H1639       H  0.65043706  0.16154520  0.59371309     0.08100
C1640       C  0.59714362  0.10111313  0.61486246     0.04400
C1641       C  0.57606422  0.08018239  0.59367994    -0.20200
C1642       C  0.58911759  0.05716956  0.56925527    -0.12500
C1643       C  0.62439887  0.05413808  0.56741049     0.13200
C1644       C  0.64539930  0.07529079  0.58860885    -0.23000
C1645       C  0.58205395  0.12528539  0.64084703    -0.06000
H1646       H  0.54920812  0.08260812  0.59544196     0.14700
C1647       C  0.64031768  0.02855323  0.54376712    -0.16200
H1648       H  0.67236159  0.07355127  0.58697958     0.09000
H1649       H  0.67210600  0.23079764  0.64344759     0.06900
H1650       H  0.67311375  0.21519806  0.59780327     0.08100
H1651       H  0.71151701  0.21964028  0.62300315     0.07100
H1652       H  0.67478765  0.05928295  0.65994575     0.02000
H1653       H  0.63678732  0.07078454  0.68266082     0.02500
H1654       H  0.67618788  0.07342160  0.70644209     0.06000
H1655       H  0.55424594  0.12361082  0.64007431     0.05000
H1656       H  0.59031847  0.15111387  0.63355973    -0.00800
H1657       H  0.59019494  0.11984483  0.66915196     0.00700
H1658       H  0.63632028  0.03412468  0.51446715     0.04300
H1659       H  0.62960363  0.00344365  0.55047060     0.06300
H1660       H  0.66780460  0.02820700  0.54818975     0.07100
C1661       C  0.58763442  0.10961851  0.87325058    -0.22500
C1662       C  0.59268024  0.14164590  0.88742276     0.09500
C1663       C  0.57841871  0.14950273  0.92132325     0.09900
C1664       C  0.56097316  0.12439766  0.94131966    -0.17400
C1665       C  0.55781667  0.09138364  0.92843902    -0.27800
C1666       C  0.57064760  0.08430731  0.89314569     0.18200
C1667       C  0.61606728  0.16492868  0.86761046     0.12200
C1668       C  0.58216563  0.18416705  0.93661733    -0.12200
H1669       H  0.55083132  0.13044631  0.96778550     0.12500
C1670       C  0.56780838  0.05015767  0.87619897    -0.23000
H1671       H  0.59857454  0.10402209  0.84700685     0.08100
C1672       C  0.65063943  0.16564673  0.87537728     0.04400
C1673       C  0.67293174  0.18377810  0.85265259    -0.20200
C1674       C  0.66190547  0.20005131  0.82103305    -0.12500
C1675       C  0.62688032  0.20006577  0.81387564     0.13200
C1676       C  0.60448341  0.18271297  0.83753586    -0.23000
C1677       C  0.66430990  0.14557208  0.90641795    -0.06000
H1678       H  0.69946896  0.18351098  0.85865546     0.14700
C1679       C  0.61264844  0.21724163  0.78104451    -0.16200
H1680       H  0.57788027  0.18163870  0.83159833     0.09000
H1681       H  0.58192914  0.03231417  0.89273423     0.06900
H1682       H  0.57842288  0.04993307  0.84818958     0.08100
H1683       H  0.54106725  0.04172163  0.87413856     0.07100
H1684       H  0.57115416  0.20201653  0.91732670     0.02000
H1685       H  0.60903240  0.19123075  0.94070166     0.02500
H1686       H  0.56925571  0.18622638  0.96330388     0.06000
H1687       H  0.69198083  0.14875679  0.90859747     0.05000
H1688       H  0.65798258  0.11875368  0.90203525    -0.00800
H1689       H  0.65337438  0.15340907  0.93267268     0.00700
H1690       H  0.62105511  0.20524293  0.75559232     0.04300
H1691       H  0.62071850  0.24392514  0.78096806     0.06300
H1692       H  0.58483098  0.21576922  0.78099382     0.07100
C1693       C  0.61517954  0.42035668  0.62253518    -0.22500
C1694       C  0.63299209  0.39571781  0.60504498     0.09500
C1695       C  0.63442532  0.39498701  0.56659945     0.09900
C1696       C  0.61638596  0.41792383  0.54642207    -0.17400
C1697       C  0.59649123  0.44105860  0.56391823    -0.27800
C1698       C  0.59732742  0.44344027  0.60244206     0.18200
C1699       C  0.64826271  0.36992310  0.62774754     0.12200
C1700       C  0.65373787  0.36915059  0.54691429    -0.12200
H1701       H  0.61611469  0.41632838  0.51690227     0.12500
C1702       C  0.58007827  0.47015196  0.62316038    -0.23000
H1703       H  0.61485970  0.42128751  0.65210890     0.08100
C1704       C  0.68125406  0.37377484  0.64096276     0.04400
C1705       C  0.69376728  0.34934796  0.66407275    -0.20200
C1706       C  0.67378696  0.32143763  0.67529621    -0.15100
C1707       C  0.64037942  0.31790052  0.66189978     0.13200
C1708       C  0.62836122  0.34202488  0.63797635    -0.23000
C1709       C  0.70295161  0.40407011  0.63141624    -0.06000
H1710       H  0.71920169  0.35264427  0.67405462     0.14700
C1711       C  0.61666618  0.28954612  0.67302705    -0.16200
H1712       H  0.60287935  0.33962801  0.62782433     0.09000
H1713       H  0.59847789  0.48342519  0.64126075     0.06900
H1714       H  0.55967257  0.45871165  0.64013905     0.08100
H1715       H  0.56950603  0.48916688  0.60509121     0.07100
H1716       H  0.64322393  0.34393908  0.55373726     0.02000
H1717       H  0.68046175  0.37100921  0.55514368     0.02500
H1718       H  0.65258573  0.37246078  0.51685651     0.06000
H1719       H  0.72808210  0.40335561  0.64432608     0.05000
H1720       H  0.69085044  0.42679152  0.64102627    -0.00800
H1721       H  0.70646631  0.40569073  0.60142788     0.00700
H1722       H  0.61251702  0.29009927  0.70298167     0.04300
H1723       H  0.62697681  0.26548369  0.66495742     0.06300
H1724       H  0.59179543  0.29112938  0.65970566     0.07100
C1725       C  0.91752621  0.12076107  0.61722030    -0.22500
C1726       C  0.88582767  0.10486571  0.62096110     0.09500
C1727       C  0.87956383  0.07373084  0.60423816     0.09900
C1728       C  0.90471757  0.05978341  0.58300415    -0.17400
C1729       C  0.93611956  0.07641360  0.57736348    -0.27800
C1730       C  0.94276144  0.10707569  0.59576265     0.18200
C1731       C  0.85938762  0.12192488  0.64164725     0.12200
C1732       C  0.84608242  0.05549752  0.60829089    -0.12200
H1733       H  0.89921304  0.03615020  0.56973820     0.12500
C1734       C  0.97613625  0.12579662  0.59319424    -0.23000
H1735       H  0.92228126  0.14445206  0.63066236     0.08100
C1736       C  0.85674923  0.11938060  0.67994892     0.04400
C1737       C  0.83278960  0.13763963  0.69845521    -0.20200
C1738       C  0.81257551  0.16000769  0.67993230    -0.12500
C1739       C  0.81433144  0.16151093  0.64124994     0.13200
C1740       C  0.83751124  0.14220763  0.62265349    -0.23000
C1741       C  0.88003326  0.09829424  0.70144057    -0.06000
H1742       H  0.83130240  0.13588125  0.72793101     0.14700
C1743       C  0.79167657  0.18299213  0.61930252    -0.16200
H1744       H  0.83935003  0.14371304  0.59317643     0.09000
H1745       H  0.97716957  0.14823601  0.61081967     0.06900
H1746       H  0.98073110  0.13430323  0.56473888     0.08100
H1747       H  0.99635799  0.10957575  0.60224683     0.07100
H1748       H  0.82608403  0.07082222  0.59689815     0.02000
H1749       H  0.84089001  0.05053462  0.63760547     0.02500
H1750       H  0.84529750  0.03130547  0.59370744     0.06000
H1751       H  0.87468335  0.09906289  0.73117596     0.05000
H1752       H  0.90631968  0.10750214  0.69719323    -0.00800
H1753       H  0.87730099  0.07205664  0.69228666     0.00700
H1754       H  0.79467609  0.17902276  0.58950405     0.04300
H1755       H  0.79763171  0.20967856  0.62471568     0.06300
H1756       H  0.76512482  0.17685563  0.62643610     0.07100
C1757       C  0.88855419  0.32719756  0.84302323    -0.22500
C1758       C  0.87503346  0.35183327  0.86467918     0.09500
C1759       C  0.83998471  0.35470743  0.86596958     0.09900
C1760       C  0.81930237  0.33368221  0.84422674    -0.17400
C1761       C  0.83283383  0.30988175  0.82102879    -0.27800
C1762       C  0.86803470  0.30610907  0.82130594     0.18200
C1763       C  0.89818329  0.37416711  0.88595497     0.12200
C1764       C  0.82447882  0.37997603  0.89026568    -0.12200
H1765       H  0.79249552  0.33659238  0.84455549     0.12500
C1766       C  0.88432171  0.27939177  0.79977400    -0.23000
H1767       H  0.91547484  0.32472974  0.84287852     0.08100
C1768       C  0.91261554  0.36355815  0.91877500     0.04400
C1769       C  0.93367298  0.38573071  0.93847330    -0.20200
C1770       C  0.94022618  0.41887690  0.92687196    -0.12500
C1771       C  0.92664258  0.42896301  0.89291544     0.13200
C1772       C  0.90598185  0.40633602  0.87289479    -0.23000
C1773       C  0.90489932  0.32914315  0.93369053    -0.06000
H1774       H  0.94410812  0.37716209  0.96393720     0.14700
C1775       C  0.93314012  0.46337338  0.87756329    -0.16200
H1776       H  0.89521038  0.41395277  0.84718804     0.09000
H1777       H  0.91143462  0.27818666  0.80610308     0.06900
H1778       H  0.88216782  0.28416111  0.77005856     0.08100
H1779       H  0.87221743  0.25499708  0.80693080     0.07100
H1780       H  0.83356638  0.40540145  0.88232920     0.02000
H1781       H  0.83145537  0.37529861  0.91911795     0.02500
H1782       H  0.79671450  0.37880060  0.88825447     0.06000
H1783       H  0.91787976  0.32497975  0.96003294     0.05000
H1784       H  0.91310543  0.31019236  0.91403766    -0.00800
H1785       H  0.87752844  0.32559000  0.93834390     0.00700
H1786       H  0.92137963  0.46625509  0.85030678     0.04300
H1787       H  0.96049206  0.46851023  0.87441269     0.06300
H1788       H  0.92243860  0.48204446  0.89592624     0.07100
C1789       C  0.91394931  0.13072969  0.91295397    -0.22500
C1790       C  0.89085366  0.11873779  0.88697029     0.09500
C1791       C  0.88352356  0.08422359  0.88436882     0.09900
C1792       C  0.89904338  0.06244275  0.90850732    -0.17400
C1793       C  0.92229707  0.07430142  0.93471103    -0.27800
C1794       C  0.92978494  0.10907778  0.93690956     0.18200
C1795       C  0.87316898  0.14300251  0.86424562     0.12200
C1796       C  0.85938133  0.07047231  0.85605304    -0.12200
H1797       H  0.89314064  0.03597735  0.90670048     0.12500
C1798       C  0.95306255  0.12394845  0.96547881    -0.23000
H1799       H  0.91909504  0.15733984  0.91490127     0.08100
C1800       C  0.84265781  0.15565508  0.87579252     0.04400
C1801       C  0.82597120  0.17756154  0.85300297    -0.20200
C1802       C  0.83883660  0.18729718  0.81854289    -0.12500
C1803       C  0.87048385  0.17555886  0.80781368     0.13200
C1804       C  0.88712606  0.15358481  0.83093526    -0.23000
C1805       C  0.82753708  0.14576703  0.91212598    -0.06000
H1806       H  0.80216130  0.18647255  0.86205155     0.14700
C1807       C  0.88695870  0.18519188  0.77208612    -0.16200
H1808       H  0.91094365  0.14405331  0.82274029     0.09000
H1809       H  0.95419968  0.15155432  0.96441494     0.06900
H1810       H  0.97888115  0.11569790  0.96114304     0.08100
H1811       H  0.94403570  0.11645248  0.99303163     0.07100
H1812       H  0.86867232  0.07729509  0.82836809     0.02000
H1813       H  0.83435497  0.08083928  0.86007310     0.02500
H1814       H  0.85650936  0.04293714  0.85762440     0.06000
H1815       H  0.80344094  0.15781778  0.91696767     0.05000
H1816       H  0.84505844  0.15327433  0.93445176    -0.00800
H1817       H  0.82269212  0.11843209  0.91319096     0.00700
H1818       H  0.91164680  0.17383848  0.76891099     0.04300
H1819       H  0.89128570  0.21250442  0.77046629     0.06300
H1820       H  0.87111545  0.17661425  0.74890101     0.07100
C1821       C  0.58536289  0.39513051  0.86910696    -0.22500
C1822       C  0.60790797  0.37434139  0.88621249     0.09500
C1823       C  0.60640446  0.36983293  0.92436682     0.09900
C1824       C  0.58379126  0.38797856  0.94486278    -0.17400
C1825       C  0.56295803  0.41090542  0.92813807    -0.27800
C1826       C  0.56271707  0.41335766  0.88953115     0.18200
C1827       C  0.63344802  0.35839858  0.86353956     0.12200
C1828       C  0.62926255  0.34659626  0.94352749    -0.12200
H1829       H  0.58376544  0.38555992  0.97433343     0.12500
C1830       C  0.53835341  0.43456134  0.86961245    -0.23000
H1831       H  0.58605866  0.39764535  0.83964794     0.08100
C1832       C  0.62665875  0.32767385  0.84628147     0.04400
C1833       C  0.65110787  0.31429746  0.82383611    -0.20200
C1834       C  0.68208739  0.33124535  0.81712951    -0.12500
C1835       C  0.68872782  0.36238678  0.83458367     0.13200
C1836       C  0.66438549  0.37527744  0.85779440    -0.23000
C1837       C  0.59329937  0.30932170  0.85094633    -0.06000
H1838       H  0.64547997  0.29067859  0.81073743     0.14700
C1839       C  0.72102949  0.38247141  0.82910528    -0.16200
H1840       H  0.66918968  0.39904940  0.87106983     0.09000
H1841       H  0.53982783  0.43114197  0.83958244     0.06900
H1842       H  0.54382829  0.46128518  0.87525494     0.08100
H1843       H  0.51239569  0.42751876  0.87829601     0.07100
H1844       H  0.65576117  0.35501208  0.93914707     0.02000
H1845       H  0.62527934  0.32104549  0.93260003     0.02500
H1846       H  0.62447731  0.34565871  0.97337926     0.06000
H1847       H  0.59201658  0.28559614  0.83547392     0.05000
H1848       H  0.57299494  0.32498395  0.84087689    -0.00800
H1849       H  0.58894992  0.30346675  0.88021233     0.00700
H1850       H  0.72367492  0.38994745  0.80003309     0.04300
H1851       H  0.74251083  0.36765063  0.83752366     0.06300
H1852       H  0.72191543  0.40559844  0.84563622     0.07100
C1853       C  0.90306337  0.41072897  0.62612328    -0.22500
C1854       C  0.87012444  0.40727167  0.61339045     0.09500
C1855       C  0.86066409  0.42434818  0.58170985     0.09900
C1856       C  0.88497089  0.44335171  0.56230033    -0.17400
C1857       C  0.91875615  0.44526183  0.57350381    -0.27800
C1858       C  0.92764906  0.42928500  0.60667531     0.18200
C1859       C  0.84677741  0.38380472  0.63269707     0.12200
C1860       C  0.82510961  0.42181560  0.56800449    -0.12200
H1861       H  0.87763201  0.45579518  0.53746251     0.12500
C1862       C  0.96289544  0.43045237  0.62163216    -0.23000
H1863       H  0.90980327  0.39765299  0.65080527     0.08100
C1864       C  0.84508213  0.34975545  0.62376511     0.04400
C1865       C  0.82544792  0.32762415  0.64515896    -0.20200
C1866       C  0.80828056  0.33844464  0.67621610    -0.12500
C1867       C  0.80922882  0.37306361  0.68433526     0.13200
C1868       C  0.82834746  0.39521296  0.66221598    -0.23000
C1869       C  0.86505830  0.33658736  0.59245803    -0.06000
H1870       H  0.82489229  0.30140836  0.63842713     0.14700
C1871       C  0.79094448  0.38717357  0.71641293    -0.16200
H1872       H  0.82995894  0.42149957  0.66871437     0.09000
H1873       H  0.97990792  0.41820559  0.60239447     0.06900
H1874       H  0.96452382  0.41719023  0.64816436     0.08100
H1875       H  0.97161827  0.45665188  0.62628293     0.07100
H1876       H  0.80800495  0.43102097  0.58923021     0.02000
H1877       H  0.81790907  0.39552566  0.56167945     0.02500
H1878       H  0.82184682  0.43678376  0.54283909     0.06000
H1879       H  0.86083630  0.30931327  0.58911718     0.05000
H1880       H  0.89219746  0.34172315  0.59739828    -0.00800
H1881       H  0.85778000  0.34879069  0.56661612     0.00700
H1882       H  0.80151523  0.37793979  0.74237888     0.04300
H1883       H  0.76384080  0.38012674  0.71466178     0.06300
H1884       H  0.79340620  0.41475606  0.71713622     0.07100
O1885       O  0.93278591  0.97278846  0.01770260    -0.80200
O1886       O  0.57608437  0.53220490  0.01481421    -0.80200
O1887       O  0.54221095  0.96059782  0.05469738    -0.80200
O1888       O  0.98633104  0.57658998  0.03831321    -0.80100
O1889       O  0.57995316  0.96816883  0.01150624    -0.80300
O1890       O  0.95275484  0.53162546  0.03637379    -0.80200
O1891       O  0.53524155  0.53526909  0.05492769    -0.80200
O1892       O  0.97225709  0.96402084  0.05680643    -0.80200
C1893       C  0.94155808  0.96236181  0.04881120     1.09500
C1894       C  0.56603863  0.53935700  0.04677888     1.09400
C1895       C  0.57202965  0.95894308  0.04377621     1.09500
C1896       C  0.95958265  0.56140311  0.04870045     1.09400
O1897       O  0.92456377  0.52401525  0.47009176    -0.80200
O1898       O  0.54296535  0.96286366  0.44142776    -0.80200
O1899       O  0.96865116  0.93155997  0.48316938    -0.80200
O1900       O  0.53397080  0.57144261  0.48524692    -0.80200
O1901       O  0.53929674  0.53426830  0.44317020    -0.80200
O1902       O  0.96404911  0.97493616  0.44689834    -0.80200
O1903       O  0.97174548  0.55492136  0.47056486    -0.80100
O1904       O  0.53650737  0.92477578  0.48411169    -0.80200
Co1905     Co  0.96098447  0.00599053  0.98909262     1.51500
Co1906     Co  0.55559155  0.50042626  0.47711659     1.51700
Co1907     Co  0.00389345  0.94901811  0.01945197     1.51600
Co1908     Co  0.00255665  0.54155720  0.51480496     1.51500
O1909       O  0.00850013  0.99597332  0.99992098    -1.42100
C1910       C  0.94093153  0.55016418  0.46011081     1.09500
C1911       C  0.54494026  0.93309359  0.45172265     1.09500
C1912       C  0.95959098  0.94394178  0.45271364     1.09500
C1913       C  0.54285913  0.56412858  0.45309071     1.09500
O1914       O  0.82318988  0.78417983  0.26365247    -0.80200
O1915       O  0.68298517  0.72159306  0.26518947    -0.80200
O1916       O  0.73209846  0.83085790  0.28060466    -0.80200
O1917       O  0.78901660  0.71097001  0.30621165    -0.80100
O1918       O  0.70090751  0.78421436  0.28230752    -0.80300
O1919       O  0.82783305  0.71722200  0.26428504    -0.80200
O1920       O  0.72057048  0.71355230  0.30661850    -0.80200
O1921       O  0.78104894  0.78887196  0.30203735    -0.80200
C1922       C  0.81200256  0.79306737  0.29453818     1.09500
C1923       C  0.69008076  0.71284116  0.29733844     1.09400
C1924       C  0.70655701  0.81473389  0.29274124     1.09500
C1925       C  0.81901486  0.70812365  0.29642483     1.09400
O1926       O  0.79383239  0.71348349  0.19378174    -0.80200
O1927       O  0.67256080  0.77126292  0.21644410    -0.80200
O1928       O  0.78237187  0.81964477  0.23200682    -0.80200
O1929       O  0.71937518  0.68110819  0.23501240    -0.80200
O1930       O  0.71552157  0.72260100  0.19595795    -0.80200
O1931       O  0.79136148  0.78154964  0.19171255    -0.80200
O1932       O  0.78651056  0.67585091  0.23673871    -0.80100
O1933       O  0.71929531  0.80242027  0.21505357    -0.80200
Co1934     Co  0.80602641  0.74898286  0.22860784     1.51500
Co1935     Co  0.71190766  0.75417955  0.23684087     1.51700
Co1936     Co  0.74938037  0.79166889  0.26083920     1.51600
Co1937     Co  0.75398139  0.69837114  0.27087572     1.51500
O1938       O  0.75906784  0.74462091  0.24930107    -1.42100
C1939       C  0.79579698  0.68382617  0.20439902     1.09500
C1940       C  0.68849042  0.79694792  0.20473770     1.09500
C1941       C  0.79184050  0.81196522  0.20031821     1.09500
C1942       C  0.71161696  0.69183605  0.20342253     1.09500
C1943       C  0.65771841  0.65408118  0.12637904    -0.22500
C1944       C  0.65548503  0.62066969  0.13727946     0.09500
C1945       C  0.67486860  0.61018268  0.16696080     0.09900
C1946       C  0.69445636  0.63381918  0.18644811    -0.17400
C1947       C  0.69498741  0.66793132  0.17735141    -0.27800
C1948       C  0.67715005  0.67792560  0.14590834     0.18200
C1949       C  0.63239694  0.59736606  0.11716020     0.12200
C1950       C  0.67403296  0.57429961  0.17889927    -0.12200
H1951       H  0.70861784  0.62555446  0.20977446     0.12500
C1952       C  0.67754878  0.71350428  0.13294571    -0.23000
H1953       H  0.64339964  0.66164460  0.10284713     0.08100
C1954       C  0.59730442  0.59857924  0.12082904     0.04400
C1955       C  0.57641512  0.57791860  0.09899252    -0.20200
C1956       C  0.58964021  0.55659241  0.07278487    -0.12500
C1957       C  0.62502359  0.55464270  0.07019388     0.13200
C1958       C  0.64578736  0.57493458  0.09259429    -0.23000
C1959       C  0.58188181  0.62199521  0.14744432    -0.06000
H1960       H  0.54950083  0.57960040  0.10134785     0.14700
C1961       C  0.64140416  0.53151492  0.04397207    -0.16200
H1962       H  0.67279525  0.57415940  0.09007342     0.09000
H1963       H  0.66655361  0.72945396  0.15406085     0.06900
H1964       H  0.66263890  0.71630020  0.10759916     0.08100
H1965       H  0.70365498  0.72232636  0.12688911     0.07100
H1966       H  0.68297061  0.55847221  0.15646061     0.02000
H1967       H  0.64803740  0.56611763  0.18628594     0.02500
H1968       H  0.69032551  0.57047861  0.20301290     0.06000
H1969       H  0.55410336  0.61924457  0.14743710     0.05000
H1970       H  0.58885056  0.64812594  0.14008498    -0.00800
H1971       H  0.59091750  0.61681939  0.17547492     0.00700
H1972       H  0.63701517  0.53943240  0.01540437     0.04300
H1973       H  0.63136642  0.50568998  0.04824254     0.06300
H1974       H  0.66896432  0.53154527  0.04799667     0.07100
C1975       C  0.59749483  0.60608021  0.37912467    -0.22500
C1976       C  0.59593933  0.63952009  0.38898139     0.09500
C1977       C  0.57499592  0.64849881  0.41789338     0.09900
C1978       C  0.55728789  0.62346357  0.43763859    -0.17400
C1979       C  0.55955115  0.58958497  0.42874746    -0.27800
C1980       C  0.57968451  0.58093106  0.39841814     0.18200
C1981       C  0.61820073  0.66398550  0.36946725     0.12200
C1982       C  0.57162898  0.68441562  0.42804309    -0.12200
H1983       H  0.54206538  0.63046618  0.46059363     0.12500
C1984       C  0.58391440  0.54541936  0.38666919    -0.23000
H1985       H  0.61359839  0.59959713  0.35664441     0.08100
C1986       C  0.65181948  0.66945312  0.38027191     0.04400
C1987       C  0.67414088  0.68701863  0.35702575    -0.20200
C1988       C  0.66376359  0.69936208  0.32299980    -0.12500
C1989       C  0.62914014  0.69624421  0.31379343     0.13200
C1990       C  0.60695950  0.67833137  0.33711079    -0.23000
C1991       C  0.66434986  0.65584465  0.41590299    -0.06000
H1992       H  0.70020871  0.68992515  0.36503449     0.14700
C1993       C  0.61513426  0.71084654  0.27932875    -0.16200
H1994       H  0.58092457  0.67425035  0.32934934     0.09000
H1995       H  0.59469530  0.53096315  0.40935850     0.06900
H1996       H  0.60111157  0.54376047  0.36299182     0.08100
H1997       H  0.55937319  0.53396813  0.37823893     0.07100
H1998       H  0.56211769  0.69832606  0.40424348     0.02000
H1999       H  0.59635301  0.69554466  0.43628360     0.02500
H2000       H  0.55390950  0.68721408  0.45106764     0.06000
H2001       H  0.69134010  0.66236271  0.42024935     0.05000
H2002       H  0.66098574  0.62833427  0.41625100    -0.00800
H2003       H  0.65014514  0.66628184  0.43891311     0.00700
H2004       H  0.62558288  0.69856290  0.25502215     0.04300
H2005       H  0.62115621  0.73801427  0.27835985     0.06300
H2006       H  0.58745206  0.70725827  0.27789798     0.07100
C2007       C  0.61459983  0.92219316  0.12634005    -0.22500
C2008       C  0.63068429  0.89571529  0.11008126     0.09500
C2009       C  0.63115861  0.89300517  0.07169621     0.09900
C2010       C  0.61406950  0.91597021  0.05046415    -0.17400
C2011       C  0.59606423  0.94124414  0.06678827    -0.27800
C2012       C  0.59759780  0.94525507  0.10516584     0.18200
C2013       C  0.64580830  0.87043098  0.13380811     0.12200
C2014       C  0.64858934  0.86513576  0.05325649    -0.12200
H2015       H  0.61312716  0.91294504  0.02109308     0.12500
C2016       C  0.58211620  0.97378059  0.12459704    -0.23000
H2017       H  0.61501363  0.92466194  0.15580748     0.08100
C2018       C  0.67977667  0.87289236  0.14403291     0.04400
C2019       C  0.69299282  0.84785079  0.16581259    -0.20200
C2020       C  0.67278612  0.82097376  0.17927595    -0.15100
C2021       C  0.63820254  0.81931540  0.16979616     0.13200
C2022       C  0.62545491  0.84377949  0.14670737    -0.23000
C2023       C  0.70182002  0.90246436  0.13285775    -0.06000
H2024       H  0.71929848  0.84981329  0.17293614     0.14700
C2025       C  0.61412937  0.79266757  0.18438561    -0.16200
H2026       H  0.59920811  0.84247717  0.13905803     0.09000
H2027       H  0.60170832  0.98765340  0.14063013     0.06900
H2028       H  0.56229681  0.96407703  0.14347516     0.08100
H2029       H  0.57107441  0.99181046  0.10568036     0.07100
H2030       H  0.63694254  0.84085222  0.06186469     0.02000
H2031       H  0.67549956  0.86597571  0.06078299     0.02500
H2032       H  0.64692875  0.86695852  0.02308866     0.06000
H2033       H  0.72772199  0.90075394  0.14355055     0.05000
H2034       H  0.69132895  0.92555393  0.14375250    -0.00800
H2035       H  0.70318345  0.90423877  0.10267968     0.00700
H2036       H  0.61357569  0.79369374  0.21467263     0.04300
H2037       H  0.62170882  0.76782506  0.17524695     0.06300
H2038       H  0.58816589  0.79591148  0.17453077     0.07100
C2039       C  0.91621046  0.62279675  0.11203974    -0.22500
C2040       C  0.88534262  0.60588587  0.11815050     0.09500
C2041       C  0.87947450  0.57412856  0.10272775     0.09900
C2042       C  0.90446426  0.56014409  0.08124697    -0.17400
C2043       C  0.93542883  0.57717371  0.07425685    -0.27800
C2044       C  0.94126039  0.60910082  0.09029116     0.18200
C2045       C  0.85938511  0.62246088  0.14011808     0.12200
C2046       C  0.84663088  0.55513256  0.10858246    -0.12200
H2047       H  0.89933318  0.53587621  0.06928621     0.12500
C2048       C  0.97346896  0.62931955  0.08470787    -0.23000
H2049       H  0.92051839  0.64717963  0.12408152     0.08100
C2050       C  0.85753666  0.61891715  0.17840976     0.04400
C2051       C  0.83420359  0.63694017  0.19822341    -0.20200
C2052       C  0.81390165  0.66004882  0.18101483    -0.12500
C2053       C  0.81496955  0.66265492  0.14231946     0.13200
C2054       C  0.83740372  0.64352283  0.12245135    -0.23000
C2055       C  0.88121546  0.59721321  0.19855106    -0.06000
H2056       H  0.83335811  0.63444200  0.22765842     0.14700
C2057       C  0.79262761  0.68543494  0.12160831    -0.16200
H2058       H  0.83870423  0.64589293  0.09300006     0.09000
H2059       H  0.97372928  0.65309097  0.10007293     0.06900
H2060       H  0.97666039  0.63567473  0.05538895     0.08100
H2061       H  0.99497095  0.61512468  0.09446869     0.07100
H2062       H  0.82581581  0.56967515  0.09768937     0.02000
H2063       H  0.84255131  0.55062257  0.13816606     0.02500
H2064       H  0.84599684  0.53065414  0.09459241     0.06000
H2065       H  0.87654375  0.59723981  0.22843869     0.05000
H2066       H  0.90742112  0.60645827  0.19382076    -0.00800
H2067       H  0.87823267  0.57121481  0.18870963     0.00700
H2068       H  0.79472268  0.68196532  0.09163581     0.04300
H2069       H  0.79979804  0.71181285  0.12740023     0.06300
H2070       H  0.76607561  0.68017541  0.12939391     0.07100
C2071       C  0.89002212  0.83122449  0.34074620    -0.22500
C2072       C  0.87620675  0.85666214  0.36106719     0.09500
C2073       C  0.84115191  0.85956857  0.36165082     0.09900
C2074       C  0.82080280  0.83770961  0.34063060    -0.17400
C2075       C  0.83455255  0.81262365  0.31944859    -0.27800
C2076       C  0.86970121  0.80883582  0.32036296     0.18200
C2077       C  0.89888375  0.87856741  0.38336409     0.12200
C2078       C  0.82518804  0.88531264  0.38493271    -0.12200
H2079       H  0.79402641  0.84060582  0.34027666     0.12500
C2080       C  0.88599168  0.78050538  0.30145267    -0.23000
H2081       H  0.91692417  0.82866435  0.34128444     0.08100
C2082       C  0.91254977  0.86710356  0.41623840     0.04400
C2083       C  0.93336445  0.88861928  0.43702835    -0.20200
C2084       C  0.94058517  0.92186027  0.42632511    -0.12500
C2085       C  0.92737186  0.93300690  0.39256087     0.13200
C2086       C  0.90678148  0.91110378  0.37157424    -0.23000
C2087       C  0.90431092  0.83237661  0.42998975    -0.06000
H2088       H  0.94326737  0.87940824  0.46247077     0.14700
C2089       C  0.93429707  0.96777061  0.37831266    -0.16200
H2090       H  0.89633859  0.91949482  0.34600319     0.09000
H2091       H  0.91312739  0.77989962  0.30790269     0.06900
H2092       H  0.88372070  0.78285333  0.27140783     0.08100
H2093       H  0.87404130  0.75664634  0.31080021     0.07100
H2094       H  0.83412656  0.91059489  0.37632444     0.02000
H2095       H  0.83190157  0.88140926  0.41400692     0.02500
H2096       H  0.79744216  0.88383569  0.38263628     0.06000
H2097       H  0.91586361  0.82783206  0.45703104     0.05000
H2098       H  0.91374941  0.81385647  0.41055348    -0.00800
H2099       H  0.87675596  0.82851517  0.43283979     0.00700
H2100       H  0.92271394  0.97150589  0.35111154     0.04300
H2101       H  0.96170189  0.97270694  0.37541798     0.06300
H2102       H  0.92367998  0.98609043  0.39716445     0.07100
C2103       C  0.91603465  0.63238672  0.41745986    -0.22500
C2104       C  0.89330463  0.62135440  0.39062055     0.09500
C2105       C  0.88627082  0.58689580  0.38638910     0.09900
C2106       C  0.90229603  0.56418517  0.40912460    -0.17400
C2107       C  0.92527463  0.57511888  0.43606697    -0.27800
C2108       C  0.93198165  0.60985429  0.44035796     0.18200
C2109       C  0.87622487  0.64638330  0.36808873     0.12200
C2110       C  0.86148152  0.57421286  0.35817924    -0.12200
H2111       H  0.89684101  0.53775814  0.40582891     0.12500
C2112       C  0.95442163  0.62367048  0.47023292    -0.23000
H2113       H  0.92086785  0.65891171  0.42086842     0.08100
C2114       C  0.84682285  0.66092633  0.38029605     0.04400
C2115       C  0.83015783  0.68261671  0.35711003    -0.20200
C2116       C  0.84184900  0.69013692  0.32154633    -0.12500
C2117       C  0.87271755  0.67701733  0.31035310     0.13200
C2118       C  0.88933902  0.65528114  0.33380977    -0.23000
C2119       C  0.83254866  0.65285070  0.41749381    -0.06000
H2120       H  0.80708332  0.69286780  0.36659549     0.14700
C2121       C  0.88822503  0.68490714  0.27370036    -0.16200
H2122       H  0.91237363  0.64445141  0.32504071     0.09000
H2123       H  0.95507202  0.65127708  0.47081439     0.06900
H2124       H  0.98049468  0.61604488  0.46609325     0.08100
H2125       H  0.94483188  0.61470549  0.49703456     0.07100
H2126       H  0.87000261  0.58214636  0.33055143     0.02000
H2127       H  0.83657013  0.58437728  0.36361715     0.02500
H2128       H  0.85867233  0.54664389  0.35850085     0.06000
H2129       H  0.80914561  0.66601955  0.42268502     0.05000
H2130       H  0.85101299  0.66040862  0.43889042    -0.00800
H2131       H  0.82671498  0.62571507  0.41974194     0.00700
H2132       H  0.91249868  0.67283367  0.27016040     0.04300
H2133       H  0.89306827  0.71211695  0.27088150     0.06300
H2134       H  0.87141587  0.67585171  0.25150945     0.07100
C2135       C  0.58347507  0.89168449  0.36937801    -0.22500
C2136       C  0.60788990  0.87312915  0.38665085     0.09500
C2137       C  0.60853537  0.87109213  0.42503277     0.09900
C2138       C  0.58573018  0.88898097  0.44544741    -0.17400
C2139       C  0.56281832  0.90957881  0.42839569    -0.27800
C2140       C  0.56083243  0.90997646  0.38978279     0.18200
C2141       C  0.63345899  0.85725375  0.36403256     0.12200
C2142       C  0.63386025  0.85072341  0.44444216    -0.12200
H2143       H  0.58709560  0.88827822  0.47496309     0.12500
C2144       C  0.53461155  0.92901009  0.36998958    -0.23000
H2145       H  0.58273756  0.89249629  0.33981303     0.08100
C2146       C  0.62745380  0.82576938  0.34815071     0.04400
C2147       C  0.65192195  0.81264694  0.32550886    -0.20200
C2148       C  0.68268903  0.82999070  0.31861082    -0.12500
C2149       C  0.68901474  0.86122930  0.33592953     0.13200
C2150       C  0.66418119  0.87441070  0.35816804    -0.23000
C2151       C  0.59532287  0.80594378  0.35535948    -0.06000
H2152       H  0.64669155  0.78865525  0.31291317     0.14700
C2153       C  0.72175706  0.88082622  0.33188297    -0.16200
H2154       H  0.66864104  0.89842307  0.37106210     0.09000
H2155       H  0.53523236  0.92450078  0.34009698     0.06900
H2156       H  0.53879865  0.95612246  0.37429380     0.08100
H2157       H  0.50934777  0.92098980  0.38008360     0.07100
H2158       H  0.65953921  0.86088239  0.43851754     0.02000
H2159       H  0.63151270  0.82451898  0.43511355     0.02500
H2160       H  0.63007024  0.85085875  0.47443335     0.06000
H2161       H  0.59452146  0.78179442  0.34068553     0.05000
H2162       H  0.57363487  0.82019206  0.34622753    -0.00800
H2163       H  0.59292446  0.80070540  0.38502924     0.00700
H2164       H  0.72560806  0.88847551  0.30302528     0.04300
H2165       H  0.74255039  0.86552003  0.34116955     0.06300
H2166       H  0.72249470  0.90381479  0.34864418     0.07100
C2167       C  0.90124642  0.90652679  0.12229485    -0.22500
C2168       C  0.86763382  0.90644953  0.11162575     0.09500
C2169       C  0.85779277  0.92764482  0.08333378     0.09900
C2170       C  0.88230530  0.94711156  0.06474142    -0.17400
C2171       C  0.91654480  0.94569943  0.07365921    -0.27800
C2172       C  0.92592287  0.92583841  0.10389135     0.18200
C2173       C  0.84367068  0.88308261  0.13023776     0.12200
C2174       C  0.82160582  0.92890782  0.07215099    -0.12200
H2175       H  0.87469282  0.96268814  0.04229629     0.12500
C2176       C  0.96171810  0.92371782  0.11662126    -0.23000
H2177       H  0.90828919  0.89051211  0.14463490     0.08100
C2178       C  0.84179747  0.84904467  0.12122348     0.04400
C2179       C  0.82304668  0.82678145  0.14340191    -0.20200
C2180       C  0.80631721  0.83765492  0.17475602    -0.12500
C2181       C  0.80624253  0.87239382  0.18196612     0.13200
C2182       C  0.82505144  0.89453833  0.15957324    -0.23000
C2183       C  0.86017091  0.83616804  0.08859256    -0.06000
H2184       H  0.82274174  0.80051462  0.13694425     0.14700
C2185       C  0.78717534  0.88667818  0.21336767    -0.16200
H2186       H  0.82639981  0.92087367  0.16583951     0.09000
H2187       H  0.97722685  0.91315460  0.09473311     0.06900
H2188       H  0.96380809  0.90737108  0.14091955     0.08100
H2189       H  0.97190579  0.94879667  0.12441763     0.07100
H2190       H  0.80640571  0.93696109  0.09562864     0.02000
H2191       H  0.81224901  0.90388212  0.06315963     0.02500
H2192       H  0.81815411  0.94665084  0.04932351     0.06000
H2193       H  0.85577252  0.80892246  0.08516083     0.05000
H2194       H  0.88752206  0.84127312  0.09180040    -0.00800
H2195       H  0.85145470  0.84863690  0.06345465     0.00700
H2196       H  0.79802079  0.87879194  0.23973986     0.04300
H2197       H  0.76037563  0.87843082  0.21177865     0.06300
H2198       H  0.78838449  0.91429828  0.21296911     0.07100
O2199       O  0.93357188  0.97059042  0.51724367    -0.80200
O2200       O  0.57480683  0.53386796  0.51351044    -0.80200
O2201       O  0.54159092  0.95765577  0.55401455    -0.80200
O2202       O  0.98584845  0.57953053  0.53790920    -0.80100
O2203       O  0.57920986  0.96525479  0.51057302    -0.80300
O2204       O  0.95370713  0.53357806  0.53646243    -0.80200
O2205       O  0.53412279  0.53754889  0.55394962    -0.80200
O2206       O  0.97282819  0.96168081  0.55626196    -0.80200
C2207       C  0.94220048  0.95995906  0.54825814     1.09500
C2208       C  0.56490039  0.54137838  0.54546369     1.09400
C2209       C  0.57154498  0.95659691  0.54317473     1.09500
C2210       C  0.95981471  0.56339523  0.54884484     1.09400
O2211       O  0.92334614  0.52217555  0.97051805    -0.80200
O2212       O  0.54499233  0.96652208  0.94228566    -0.80200
O2213       O  0.96771146  0.93312835  0.98464770    -0.80200
O2214       O  0.53580139  0.56971170  0.98597844    -0.80200
O2215       O  0.54201983  0.53255766  0.94389881    -0.80200
O2216       O  0.96308257  0.97541345  0.94694642    -0.80200
O2217       O  0.97121116  0.55224838  0.97110570    -0.80100
O2218       O  0.53788043  0.92759772  0.98407171    -0.80200
Co2219     Co  0.96227835  0.00436450  0.48993528     1.51500
Co2220     Co  0.55745825  0.49867080  0.97834704     1.51700
Co2221     Co  0.00450683  0.94671980  0.51910194     1.51600
Co2222     Co  0.00207096  0.53830307  0.01496057     1.51500
O2223       O  0.00977555  0.99365498  0.49990400    -1.42100
C2224       C  0.94035675  0.54797929  0.96061935     1.09500
C2225       C  0.54658512  0.93644516  0.95180900     1.09500
C2226       C  0.95879863  0.94455430  0.95376452     1.09500
C2227       C  0.54407848  0.56260268  0.95353749     1.09500
O2228       O  0.82429188  0.78209536  0.76583409    -0.80200
O2229       O  0.68340651  0.72131319  0.76574629    -0.80200
O2230       O  0.73298655  0.83034742  0.78107288    -0.80200
O2231       O  0.78922104  0.70903905  0.80737460    -0.80100
O2232       O  0.70135030  0.78405675  0.78258917    -0.80300
O2233       O  0.82817616  0.71498660  0.76557780    -0.80200
O2234       O  0.72080605  0.71295381  0.80732130    -0.80200
O2235       O  0.78161279  0.78785790  0.80341650    -0.80200
C2236       C  0.81278425  0.79135795  0.79647931     1.09500
C2237       C  0.69041929  0.71190777  0.79771912     1.09400
C2238       C  0.70682758  0.81476381  0.79247723     1.09500
C2239       C  0.81918034  0.70577581  0.79756982     1.09400
O2240       O  0.79490948  0.71182405  0.69498252    -0.80200
O2241       O  0.67364585  0.77120798  0.71652910    -0.80200
O2242       O  0.78410519  0.81832577  0.73374779    -0.80200
O2243       O  0.71934655  0.68065453  0.73566522    -0.80200
O2244       O  0.71616888  0.72208993  0.69650737    -0.80200
O2245       O  0.79345220  0.78040764  0.69331633    -0.80200
O2246       O  0.78614356  0.67431428  0.73797388    -0.80100
O2247       O  0.72085216  0.80172383  0.71541189    -0.80200
Co2248     Co  0.80708656  0.74728949  0.73016564     1.51500
Co2249     Co  0.71266811  0.75372125  0.73741912     1.51700
Co2250     Co  0.75032456  0.79079842  0.76178030     1.51600
Co2251     Co  0.75401986  0.69730762  0.77182270     1.51500
O2252       O  0.75979135  0.74359289  0.75037089    -1.42100
C2253       C  0.79578314  0.68203293  0.70573669     1.09500
C2254       C  0.69004432  0.79662049  0.70478507     1.09500
C2255       C  0.79395225  0.81078247  0.70219290     1.09500
C2256       C  0.71172425  0.69139681  0.70403272     1.09500
C2257       C  0.66412120  0.65327914  0.62205289    -0.22500
C2258       C  0.65547061  0.62157066  0.63586102     0.09500
C2259       C  0.66738713  0.61216721  0.67032705     0.09900
C2260       C  0.68701591  0.63502512  0.69072884    -0.17400
C2261       C  0.69448467  0.66766757  0.67809014    -0.27800
C2262       C  0.68326972  0.67661501  0.64270675     0.18200
C2263       C  0.63208269  0.59943063  0.61473795     0.12200
C2264       C  0.65836288  0.57839377  0.68618073    -0.12200
H2265       H  0.69550530  0.62745253  0.71744588     0.12500
C2266       C  0.69066340  0.71054622  0.62642598    -0.23000
H2267       H  0.65486473  0.66010243  0.59536241     0.08100
C2268       C  0.59724132  0.60350796  0.61589007     0.04400
C2269       C  0.57595119  0.58308360  0.59429477    -0.20200
C2270       C  0.58863429  0.55886052  0.57106097    -0.12500
C2271       C  0.62368813  0.55408713  0.57098921     0.13200
C2272       C  0.64486358  0.57433689  0.59306978    -0.23000
C2273       C  0.58258298  0.62963123  0.63977664    -0.06000
H2274       H  0.54930079  0.58696421  0.59458442     0.14700
C2275       C  0.63915003  0.52764053  0.54822674    -0.16200
H2276       H  0.67166567  0.57107075  0.59293346     0.09000
H2277       H  0.67903107  0.72979357  0.64318301     0.06900
H2278       H  0.68046782  0.71258599  0.59832510     0.08100
H2279       H  0.71813591  0.71564644  0.62499605     0.07100
H2280       H  0.66791794  0.55873640  0.66823841     0.02000
H2281       H  0.63072239  0.57505582  0.68847569     0.02500
H2282       H  0.66926986  0.57522386  0.71381310     0.06000
H2283       H  0.55483520  0.62930935  0.63779763     0.05000
H2284       H  0.59244197  0.65468630  0.63140867    -0.00800
H2285       H  0.58942025  0.62515902  0.66870875     0.00700
H2286       H  0.63611506  0.53306502  0.51875027     0.04300
H2287       H  0.62725838  0.50307801  0.55490139     0.06300
H2288       H  0.66641849  0.52620308  0.55357947     0.07100
C2289       C  0.58698298  0.60647304  0.87228445    -0.22500
C2290       C  0.59392139  0.63802603  0.88700806     0.09500
C2291       C  0.58058888  0.64618128  0.92123124     0.09900
C2292       C  0.56312479  0.62144756  0.94158299    -0.17400
C2293       C  0.55834124  0.58873976  0.92830883    -0.27800
C2294       C  0.56931780  0.58166150  0.89224823     0.18200
C2295       C  0.61786396  0.66067620  0.86731425     0.12200
C2296       C  0.58485426  0.68093971  0.93618247    -0.12200
H2297       H  0.55400496  0.62759135  0.96847856     0.12500
C2298       C  0.56355636  0.54810042  0.87446304    -0.23000
H2299       H  0.59682346  0.60082440  0.84553046     0.08100
C2300       C  0.65228148  0.66147820  0.87593001     0.04400
C2301       C  0.67490409  0.67995711  0.85387183    -0.20200
C2302       C  0.66423075  0.69687045  0.82249017    -0.12500
C2303       C  0.62934672  0.69662058  0.81453833     0.13200
C2304       C  0.60671200  0.67863996  0.83725261    -0.23000
C2305       C  0.66537519  0.64147187  0.90736786    -0.06000
H2306       H  0.70135219  0.67981717  0.86038879     0.14700
C2307       C  0.61545523  0.71438382  0.78192686    -0.16200
H2308       H  0.58020562  0.67753215  0.83080106     0.09000
H2309       H  0.57749786  0.52900458  0.88935218     0.06900
H2310       H  0.57247130  0.54808905  0.84574669     0.08100
H2311       H  0.53636633  0.54118316  0.87406707     0.07100
H2312       H  0.57293476  0.69857810  0.91733650     0.02000
H2313       H  0.61178870  0.68826899  0.93892114     0.02500
H2314       H  0.57303203  0.68310309  0.96345151     0.06000
H2315       H  0.69304321  0.64435509  0.90986181     0.05000
H2316       H  0.65874947  0.61468130  0.90322189    -0.00800
H2317       H  0.65432057  0.64964323  0.93342516     0.00700
H2318       H  0.62425926  0.70295520  0.75631737     0.04300
H2319       H  0.62336080  0.74109356  0.78266029     0.06300
H2320       H  0.58764499  0.71278995  0.78141245     0.07100
C2321       C  0.61289564  0.91965020  0.62667769    -0.22500
C2322       C  0.63293443  0.89620604  0.61020809     0.09500
C2323       C  0.63669369  0.89642897  0.57192206     0.09900
C2324       C  0.61865786  0.91879207  0.55078268    -0.17400
C2325       C  0.59637175  0.94051081  0.56701624    -0.27800
C2326       C  0.59495336  0.94213859  0.60568054     0.18200
C2327       C  0.64828647  0.87060763  0.63346735     0.12200
C2328       C  0.65882959  0.87225758  0.55338388    -0.12200
H2329       H  0.62040552  0.91777406  0.52129908     0.12500
C2330       C  0.57513186  0.96736318  0.62579422    -0.23000
H2331       H  0.61082166  0.92005086  0.65619613     0.08100
C2332       C  0.67940092  0.87644954  0.65085870     0.04400
C2333       C  0.69246458  0.85145695  0.67286593    -0.20200
C2334       C  0.67479061  0.82092266  0.67919662    -0.15100
C2335       C  0.64297819  0.81556060  0.66219502     0.13200
C2336       C  0.63059055  0.84025488  0.63911014    -0.23000
C2337       C  0.69859274  0.90923733  0.64660233    -0.06000
H2338       H  0.71645564  0.85627583  0.68590460     0.14700
C2339       C  0.62140048  0.78445199  0.66838584    -0.16200
H2340       H  0.60647606  0.83621188  0.62588196     0.09000
H2341       H  0.59177688  0.98102091  0.64545820     0.06900
H2342       H  0.55439294  0.95449787  0.64109257     0.08100
H2343       H  0.56467016  0.98629518  0.60754686     0.07100
H2344       H  0.64912553  0.84641220  0.55845081     0.02000
H2345       H  0.68472211  0.87521673  0.56422854     0.02500
H2346       H  0.65992738  0.87649285  0.52346785     0.06000
H2347       H  0.72261653  0.90971068  0.66193375     0.05000
H2348       H  0.68338224  0.92959983  0.65711190    -0.00800
H2349       H  0.70433466  0.91387421  0.61735437     0.00700
H2350       H  0.61440912  0.78236470  0.69764350     0.04300
H2351       H  0.63493887  0.76229953  0.65991309     0.06300
H2352       H  0.59778127  0.78461483  0.65237359     0.07100
C2353       C  0.91466265  0.62308792  0.61227293    -0.22500
C2354       C  0.88501699  0.60452116  0.61981759     0.09500
C2355       C  0.88077098  0.57208620  0.60571437     0.09900
C2356       C  0.90604159  0.55918760  0.58380646    -0.17400
C2357       C  0.93564262  0.57797795  0.57514522    -0.27800
C2358       C  0.94005199  0.61039112  0.59028809     0.18200
C2359       C  0.85864148  0.62012112  0.64195110     0.12200
C2360       C  0.84929865  0.55129837  0.61326128    -0.12200
H2361       H  0.90214340  0.53436468  0.57278352     0.12500
C2362       C  0.97114678  0.63206246  0.58365258    -0.23000
H2363       H  0.91775293  0.64794661  0.62345796     0.08100
C2364       C  0.85813879  0.61780536  0.68039097     0.04400
C2365       C  0.83498079  0.63591060  0.70030490    -0.20200
C2366       C  0.81328722  0.65756247  0.68285284    -0.12500
C2367       C  0.81236749  0.65816083  0.64415595     0.13200
C2368       C  0.83502536  0.63936356  0.62423429    -0.23000
C2369       C  0.88297419  0.59734322  0.70048877    -0.06000
H2370       H  0.83526347  0.63464707  0.72983902     0.14700
C2371       C  0.78724481  0.67802689  0.62367511    -0.16200
H2372       H  0.83507363  0.64049237  0.59467220     0.09000
H2373       H  0.97044427  0.65602024  0.59856476     0.06900
H2374       H  0.97355899  0.63806781  0.55417552     0.08100
H2375       H  0.99355178  0.61915620  0.59326311     0.07100
H2376       H  0.82725283  0.56414878  0.60260262     0.02000
H2377       H  0.84627484  0.54739533  0.64307956     0.02500
H2378       H  0.84986198  0.52649759  0.60007683     0.06000
H2379       H  0.87938782  0.59848385  0.73052104     0.05000
H2380       H  0.90884002  0.60678102  0.69424492    -0.00800
H2381       H  0.88010139  0.57094135  0.69201316     0.00700
H2382       H  0.78854657  0.67369405  0.59378533     0.04300
H2383       H  0.79200659  0.70502320  0.62825314     0.06300
H2384       H  0.76156127  0.67057207  0.63290442     0.07100
C2385       C  0.89074826  0.82744801  0.84514792    -0.22500
C2386       C  0.87719004  0.85345838  0.86477632     0.09500
C2387       C  0.84229546  0.85753753  0.86395309     0.09900
C2388       C  0.82186135  0.83606530  0.84254824    -0.17400
C2389       C  0.83536912  0.81047792  0.82189510    -0.27800
C2390       C  0.87038111  0.80580485  0.82384059     0.18200
C2391       C  0.89995770  0.87595956  0.88632043     0.12200
C2392       C  0.82659409  0.88438986  0.88588766    -0.12200
H2393       H  0.79521236  0.83988936  0.84121439     0.12500
C2394       C  0.88649605  0.77757456  0.80462993    -0.23000
H2395       H  0.91753971  0.82422699  0.84639778     0.08100
C2396       C  0.91359554  0.86575302  0.91974749     0.04400
C2397       C  0.93382191  0.88831232  0.93990864    -0.20200
C2398       C  0.94041342  0.92135914  0.92806255    -0.12500
C2399       C  0.92739141  0.93114762  0.89374145     0.13200
C2400       C  0.90755385  0.90817939  0.87332139    -0.23000
C2401       C  0.90586692  0.83139573  0.93481985    -0.06000
H2402       H  0.94366765  0.88009569  0.96581976     0.14700
C2403       C  0.93360948  0.96561071  0.87839766    -0.16200
H2404       H  0.89722538  0.91557265  0.84730498     0.09000
H2405       H  0.91345361  0.77626933  0.81169099     0.06900
H2406       H  0.88489174  0.78065697  0.77460420     0.08100
H2407       H  0.87384792  0.75379481  0.81310830     0.07100
H2408       H  0.83659940  0.90919715  0.87689720     0.02000
H2409       H  0.83230076  0.88095068  0.91529364     0.02500
H2410       H  0.79893820  0.88381141  0.88257640     0.06000
H2411       H  0.91795169  0.82770450  0.96176643     0.05000
H2412       H  0.91510631  0.81238439  0.91585556    -0.00800
H2413       H  0.87839064  0.82745430  0.93833565     0.00700
H2414       H  0.92222776  0.96828609  0.85092477     0.04300
H2415       H  0.96093892  0.97116471  0.87573189     0.06300
H2416       H  0.92231252  0.98412699  0.89649202     0.07100
C2417       C  0.91789905  0.62987417  0.91598302    -0.22500
C2418       C  0.89387613  0.61876588  0.89054246     0.09500
C2419       C  0.88553054  0.58447126  0.88762321     0.09900
C2420       C  0.90127862  0.56195314  0.91061545    -0.17400
C2421       C  0.92535419  0.57290532  0.93634500    -0.27800
C2422       C  0.93372689  0.60748063  0.93906751     0.18200
C2423       C  0.87658886  0.64363711  0.86834342     0.12200
C2424       C  0.85981669  0.57172127  0.86041304    -0.12200
H2425       H  0.89471175  0.53563992  0.90847433     0.12500
C2426       C  0.95790909  0.62138151  0.96731959    -0.23000
H2427       H  0.92376737  0.65633584  0.91821035     0.08100
C2428       C  0.84670373  0.65718216  0.88049699     0.04400
C2429       C  0.82972026  0.67871037  0.85749616    -0.20200
C2430       C  0.84184366  0.68733118  0.82238928    -0.12500
C2431       C  0.87327304  0.67524019  0.81138672     0.13200
C2432       C  0.89001396  0.65340776  0.83453727    -0.23000
C2433       C  0.83254625  0.64853142  0.91762444    -0.06000
H2434       H  0.80623668  0.68816098  0.86685945     0.14700
C2435       C  0.88943979  0.68443815  0.77538568    -0.16200
H2436       H  0.91346309  0.64328788  0.82595181     0.09000
H2437       H  0.95974797  0.64898816  0.96669771     0.06900
H2438       H  0.98339544  0.61251279  0.96227215     0.08100
H2439       H  0.94916780  0.61376510  0.99492637     0.07100
H2440       H  0.86797984  0.57869999  0.83237002     0.02000
H2441       H  0.83532408  0.58267387  0.86604441     0.02500
H2442       H  0.85626584  0.54422280  0.86165205     0.06000
H2443       H  0.80884927  0.66116022  0.92290304     0.05000
H2444       H  0.85086555  0.65633237  0.93908045    -0.00800
H2445       H  0.82728368  0.62130328  0.91973582     0.00700
H2446       H  0.91410435  0.67304378  0.77213124     0.04300
H2447       H  0.89375037  0.71175352  0.77345627     0.06300
H2448       H  0.87339840  0.67561803  0.75245846     0.07100
C2449       C  0.58572766  0.89740478  0.86770642    -0.22500
C2450       C  0.60618943  0.87419870  0.88413190     0.09500
C2451       C  0.60372160  0.86860594  0.92208642     0.09900
C2452       C  0.58195162  0.88749013  0.94301153    -0.17400
C2453       C  0.56333240  0.91273356  0.92713198    -0.27800
C2454       C  0.56443569  0.91685604  0.88860516     0.18200
C2455       C  0.63191305  0.85822999  0.86145948     0.12200
C2456       C  0.62509442  0.84368571  0.94071282    -0.12200
H2457       H  0.58104911  0.88378973  0.97230052     0.12500
C2458       C  0.54335217  0.94158031  0.86911455    -0.23000
H2459       H  0.58742545  0.90119584  0.83844794     0.08100
C2460       C  0.62542879  0.82769147  0.84356900     0.04400
C2461       C  0.65054865  0.81427085  0.82193993    -0.20200
C2462       C  0.68206471  0.83075530  0.81693189    -0.12500
C2463       C  0.68815076  0.86191210  0.83449359     0.13200
C2464       C  0.66311633  0.87490963  0.85674741    -0.23000
C2465       C  0.59185607  0.80948215  0.84684014    -0.06000
H2466       H  0.64516468  0.79083007  0.80832665     0.14700
C2467       C  0.72066005  0.88186067  0.83017036    -0.16200
H2468       H  0.66771017  0.89858217  0.87032275     0.09000
H2469       H  0.54527036  0.93921921  0.83899024     0.06900
H2470       H  0.55182072  0.96736429  0.87614248     0.08100
H2471       H  0.51663006  0.93727378  0.87672780     0.07100
H2472       H  0.65198069  0.85097738  0.93702795     0.02000
H2473       H  0.62009555  0.81863734  0.92885779     0.02500
H2474       H  0.61981253  0.84206645  0.97041260     0.06000
H2475       H  0.59080537  0.78610360  0.83072482     0.05000
H2476       H  0.57190730  0.82550642  0.83663310    -0.00800
H2477       H  0.58674353  0.80297470  0.87579233     0.00700
H2478       H  0.72429639  0.88914476  0.80115489     0.04300
H2479       H  0.74178740  0.86700901  0.83958106     0.06300
H2480       H  0.72104674  0.90508804  0.84651984     0.07100
C2481       C  0.90207403  0.90642857  0.62383181    -0.22500
C2482       C  0.86843779  0.90613091  0.61335763     0.09500
C2483       C  0.85849830  0.92606820  0.58401858     0.09900
C2484       C  0.88295421  0.94477330  0.56446671    -0.17400
C2485       C  0.91722516  0.94359964  0.57333976    -0.27800
C2486       C  0.92673709  0.92461055  0.60422467     0.18200
C2487       C  0.84485862  0.88269987  0.63229027     0.12200
C2488       C  0.82228104  0.92670771  0.57278297    -0.12200
H2489       H  0.87527858  0.95950400  0.54135369     0.12500
C2490       C  0.96267888  0.92193663  0.61627287    -0.23000
H2491       H  0.90918557  0.89110563  0.64673517     0.08100
C2492       C  0.84306310  0.84874887  0.62297123     0.04400
C2493       C  0.82478034  0.82621035  0.64522948    -0.20200
C2494       C  0.80848823  0.83673149  0.67700231    -0.12500
C2495       C  0.80864636  0.87140226  0.68483000     0.13200
C2496       C  0.82688509  0.89383057  0.66224620    -0.23000
C2497       C  0.86118303  0.83626634  0.58996304    -0.06000
H2498       H  0.82446438  0.80001185  0.63844621     0.14700
C2499       C  0.79062350  0.88533833  0.71719004    -0.16200
H2500       H  0.82834725  0.92009984  0.66883202     0.09000
H2501       H  0.97749068  0.91056243  0.59430417     0.06900
H2502       H  0.96487599  0.90600565  0.64089047     0.08100
H2503       H  0.97359225  0.94692871  0.62328980     0.07100
H2504       H  0.80706712  0.93550622  0.59590190     0.02000
H2505       H  0.81304455  0.90132884  0.56490252     0.02500
H2506       H  0.81870207  0.94357250  0.54918774     0.06000
H2507       H  0.85662123  0.80910037  0.58606295     0.05000
H2508       H  0.88857182  0.84120205  0.59308180    -0.00800
H2509       H  0.85242169  0.84914314  0.56510261     0.00700
H2510       H  0.80219880  0.87695395  0.74298544     0.04300
H2511       H  0.76376984  0.87730896  0.71648270     0.06300
H2512       H  0.79197490  0.91295724  0.71730194     0.07100
loop_ 
_geom_bond_atom_site_label_1 
_geom_bond_atom_site_label_2 
_geom_bond_distance 
_geom_bond_site_symmetry_2 
_ccdc_geom_bond_type 
O1            C9   1.268       .  A
O1          Co21   2.012   1_554  S
O2           C10   1.276       .  A
O2         Co336   2.020   1_554  S
O3           C11   1.262       .  A
O3        Co1279   1.958       .  S
O4           C12   1.268       .  A
O4         Co338   1.894       .  S
O5           C11   1.274       .  A
O5         Co964   2.029   1_554  S
O6           C12   1.298       .  A
O6         Co649   2.123   1_554  S
O7           C10   1.273       .  A
O7        Co1594   1.977   1_455  S
O8            C9   1.258       .  A
O8          Co23   1.972       .  S
C9          C287   1.492       .  S
C10          C72   1.493       .  S
C11         C127   1.480       .  S
C12         C159   1.504       .  S
O13          C26   1.269       .  A
O13        Co963   1.901       .  S
O14          C27   1.263       .  A
O14        Co650   1.967       .  S
O15          C28   1.277       .  A
O15        Co337   2.014       .  S
O16          C29   1.271       .  A
O16       Co1280   2.018       .  S
O17          C29   1.261       .  A
O17         Co22   1.974   1_545  S
O18          C28   1.272       .  A
O18        Co335   1.985       .  S
O19          C26   1.293       .  A
O19         Co24   2.108       .  S
O20          C27   1.275       .  A
O20       Co1593   2.028       .  S
Co21        O634   2.118   1_556  S
Co21        O955   1.898       .  S
Co21        O332   1.979       .  S
Co21         O25   1.999   1_556  S
Co22        O316   2.015   1_565  S
Co22        O947   2.034       .  S
Co22        O642   1.964       .  S
Co22       O2223   2.021       .  S
Co23       O1259   1.958       .  S
Co23        O329   2.020   1_554  S
Co23       O1590   2.028   1_554  S
Co23         O25   2.016       .  S
Co24        O318   1.896       .  S
Co24       O1577   1.971       .  S
Co24       O1272   2.010       .  S
Co24        O967   1.992   1_545  S
O25       Co2220   2.024   1_554  S
O25        Co966   1.995       .  S
C26         C223   1.488       .  S
C27         C255   1.490       .  S
C28         C200   1.501       .  S
C29          C95   1.496       .  S
O30          C38   1.278       .  A
O30         Co50   2.023       .  S
O31          C39   1.265       .  A
O31         Co51   2.007       .  S
O32          C40   1.267       .  A
O32         Co52   1.897       .  S
O33          C41   1.262       .  A
O33         Co53   1.958       .  S
O34          C40   1.297       .  A
O34         Co51   2.111       .  S
O35          C41   1.274       .  A
O35         Co50   2.030       .  S
O36          C39   1.261       .  A
O36         Co53   1.981       .  S
O37          C38   1.273       .  A
O37         Co52   1.976       .  S
C38         C191   1.490       .  S
C39         C104   1.495       .  S
C40         C264   1.496       .  S
C41         C232   1.494       .  S
O42          C55   1.264       .  A
O42         Co50   1.970       .  S
O43          C56   1.265       .  A
O43         Co51   1.885       .  S
O44          C57   1.263       .  A
O44         Co52   1.998       .  S
O45          C58   1.278       .  A
O45         Co53   2.020       .  S
O46          C58   1.268       .  A
O46         Co51   1.974       .  S
O47          C57   1.264       .  A
O47         Co50   1.985       .  S
O48          C55   1.276       .  A
O48         Co53   2.032       .  S
O49          C56   1.298       .  A
O49         Co52   2.117       .  S
Co50         O54   2.023       .  S
Co51         O54   1.990       .  S
Co52         O54   1.996       .  S
Co53         O54   2.022       .  S
C55         C168   1.491       .  S
C56         C136   1.494       .  S
C57         C296   1.491       .  S
C58          C63   1.497       .  S
C59          C60   1.402       .  A
C59          C64   1.409       .  A
C59          H69   1.084       .  S
C60          C65   1.487       .  S
C60          C61   1.408       .  A
C61          C62   1.403       .  A
C61          C66   1.507       .  S
C62          C63   1.411       .  A
C62          H67   1.083       .  S
C63          C64   1.423       .  A
C64          C68   1.508       .  S
C65          C70   1.411       .  A
C65          C74   1.400       .  A
C66          H82   1.110       .  S
C66          H83   1.110       .  S
C66          H84   1.111       .  S
C68          H79   1.109       .  S
C68          H80   1.111       .  S
C68          H81   1.111       .  S
C70          C71   1.405       .  A
C70          C75   1.506       .  S
C71          C72   1.407       .  A
C71          H76   1.084       .  S
C72          C73   1.423       .  A
C73          C74   1.407       .  A
C73          C77   1.508       .  S
C74          H78   1.084       .  S
C75          H85   1.111       .  S
C75          H86   1.110       .  S
C75          H87   1.110       .  S
C77          H88   1.109       .  S
C77          H89   1.109       .  S
C77          H90   1.111       .  S
C91          C92   1.397       .  A
C91          C96   1.403       .  A
C91         H101   1.085       .  S
C92          C97   1.483       .  S
C92          C93   1.408       .  A
C93          C94   1.407       .  A
C93          C98   1.505       .  S
C94          C95   1.411       .  A
C94          H99   1.084       .  S
C95          C96   1.426       .  A
C96         C100   1.510       .  S
C97         C102   1.409       .  A
C97         C106   1.399       .  A
C98         H114   1.111       .  S
C98         H115   1.110       .  S
C98         H116   1.111       .  S
C100        H111   1.110       .  S
C100        H112   1.111       .  S
C100        H113   1.110       .  S
C102        C103   1.403       .  A
C102        C107   1.508       .  S
C103        C104   1.410       .  A
C103        H108   1.083       .  S
C104        C105   1.423       .  A
C105        C106   1.407       .  A
C105        C109   1.508       .  S
C106        H110   1.084       .  S
C107        H117   1.111       .  S
C107        H118   1.110       .  S
C107        H119   1.110       .  S
C109        H120   1.110       .  S
C109        H121   1.109       .  S
C109        H122   1.111       .  S
C123        C124   1.400       .  A
C123        C128   1.402       .  A
C123        H133   1.085       .  S
C124        C129   1.480       .  S
C124        C125   1.410       .  A
C125        C126   1.405       .  A
C125        C130   1.507       .  S
C126        C127   1.407       .  A
C126        H131   1.083       .  S
C127        C128   1.416       .  A
C128        C132   1.508       .  S
C129        C134   1.408       .  A
C129        C138   1.399       .  A
C130        H146   1.110       .  S
C130        H147   1.108       .  S
C130        H148   1.109       .  S
C132        H143   1.110       .  S
C132        H144   1.111       .  S
C132        H145   1.107       .  S
C134        C135   1.404       .  A
C134        C139   1.508       .  S
C135        C136   1.411       .  A
C135        H140   1.082       .  S
C136        C137   1.423       .  A
C137        C138   1.404       .  A
C137        C141   1.509       .  S
C138        H142   1.084       .  S
C139        H149   1.111       .  S
C139        H150   1.110       .  S
C139        H151   1.108       .  S
C141        H152   1.110       .  S
C141        H153   1.109       .  S
C141        H154   1.111       .  S
C155        C156   1.402       .  A
C155        C160   1.410       .  A
C155        H165   1.084       .  S
C156        C161   1.491       .  S
C156        C157   1.409       .  A
C157        C158   1.408       .  A
C157        C162   1.507       .  S
C158        C159   1.413       .  A
C158        H163   1.083       .  S
C159        C160   1.423       .  A
C160        C164   1.508       .  S
C161        C166   1.411       .  A
C161        C170   1.403       .  A
C162        H178   1.110       .  S
C162        H179   1.109       .  S
C162        H180   1.111       .  S
C164        H175   1.111       .  S
C164        H176   1.110       .  S
C164        H177   1.110       .  S
C166        C167   1.407       .  A
C166        C171   1.506       .  S
C167        C168   1.407       .  A
C167        H172   1.083       .  S
C168        C169   1.419       .  A
C169        C170   1.409       .  A
C169        C173   1.508       .  S
C170        H174   1.084       .  S
C171        H181   1.111       .  S
C171        H182   1.110       .  S
C171        H183   1.109       .  S
C173        H184   1.111       .  S
C173        H185   1.109       .  S
C173        H186   1.111       .  S
C187        C188   1.400       .  A
C187        C192   1.407       .  A
C187        H197   1.084       .  S
C188        C193   1.486       .  S
C188        C189   1.410       .  A
C189        C190   1.404       .  A
C189        C194   1.506       .  S
C190        C191   1.406       .  A
C190        H195   1.082       .  S
C191        C192   1.421       .  A
C192        C196   1.506       .  S
C193        C198   1.406       .  A
C193        C202   1.403       .  A
C194        H210   1.110       .  S
C194        H211   1.110       .  S
C194        H212   1.111       .  S
C196        H207   1.111       .  S
C196        H208   1.108       .  S
C196        H209   1.107       .  S
C198        C199   1.402       .  A
C198        C203   1.508       .  S
C199        C200   1.413       .  A
C199        H204   1.083       .  S
C200        C201   1.422       .  A
C201        C202   1.410       .  A
C201        C205   1.507       .  S
C202        H206   1.084       .  S
C203        H213   1.111       .  S
C203        H214   1.110       .  S
C203        H215   1.110       .  S
C205        H216   1.111       .  S
C205        H217   1.109       .  S
C205        H218   1.110       .  S
C219        C220   1.396       .  A
C219        C224   1.403       .  A
C219        H229   1.084       .  S
C220        C225   1.481       .  S
C220        C221   1.411       .  A
C221        C222   1.406       .  A
C221        C226   1.506       .  S
C222        C223   1.405       .  A
C222        H227   1.084       .  S
C223        C224   1.423       .  A
C224        C228   1.507       .  S
C225        C230   1.407       .  A
C225        C234   1.400       .  A
C226        H242   1.110       .  S
C226        H243   1.110       .  S
C226        H244   1.111       .  S
C228        H239   1.111       .  S
C228        H240   1.107       .  S
C228        H241   1.109       .  S
C230        C231   1.400       .  A
C230        C235   1.507       .  S
C231        C232   1.410       .  A
C231        H236   1.084       .  S
C232        C233   1.423       .  A
C233        C234   1.408       .  A
C233        C237   1.508       .  S
C234        H238   1.084       .  S
C235        H245   1.111       .  S
C235        H246   1.110       .  S
C235        H247   1.110       .  S
C237        H248   1.111       .  S
C237        H249   1.109       .  S
C237        H250   1.107       .  S
C251        C252   1.400       .  A
C251        C256   1.406       .  A
C251        H261   1.084       .  S
C252        C257   1.483       .  S
C252        C253   1.409       .  A
C253        C254   1.405       .  A
C253        C258   1.507       .  S
C254        C255   1.408       .  A
C254        H259   1.084       .  S
C255        C256   1.419       .  A
C256        C260   1.507       .  S
C257        C262   1.408       .  A
C257        C266   1.401       .  A
C258        H274   1.110       .  S
C258        H275   1.108       .  S
C258        H276   1.109       .  S
C260        H271   1.111       .  S
C260        H272   1.109       .  S
C260        H273   1.109       .  S
C262        C263   1.404       .  A
C262        C267   1.508       .  S
C263        C264   1.411       .  A
C263        H268   1.082       .  S
C264        C265   1.422       .  A
C265        C266   1.407       .  A
C265        C269   1.507       .  S
C266        H270   1.084       .  S
C267        H277   1.111       .  S
C267        H278   1.110       .  S
C267        H279   1.108       .  S
C269        H280   1.110       .  S
C269        H281   1.109       .  S
C269        H282   1.111       .  S
C283        C284   1.399       .  A
C283        C288   1.405       .  A
C283        H293   1.084       .  S
C284        C289   1.480       .  S
C284        C285   1.407       .  A
C285        C286   1.403       .  A
C285        C290   1.506       .  S
C286        C287   1.409       .  A
C286        H291   1.083       .  S
C287        C288   1.425       .  A
C288        C292   1.510       .  S
C289        C294   1.409       .  A
C289        C298   1.399       .  A
C290        H306   1.110       .  S
C290        H307   1.109       .  S
C290        H308   1.111       .  S
C292        H303   1.110       .  S
C292        H304   1.111       .  S
C292        H305   1.111       .  S
C294        C295   1.401       .  A
C294        C299   1.508       .  S
C295        C296   1.408       .  A
C295        H300   1.084       .  S
C296        C297   1.424       .  A
C297        C298   1.407       .  A
C297        C301   1.509       .  S
C298        H302   1.084       .  S
C299        H309   1.111       .  S
C299        H310   1.110       .  S
C299        H311   1.109       .  S
C301        H312   1.109       .  S
C301        H313   1.109       .  S
C301        H314   1.111       .  S
O315        C323   1.268       .  A
O315       Co335   2.002       .  S
O316        C324   1.273       .  A
O317        C325   1.264       .  A
O317      Co1593   1.967       .  S
O318        C326   1.268       .  A
O319        C325   1.274       .  A
O319       Co650   2.025       .  S
O320        C326   1.298       .  A
O320       Co963   2.118       .  S
O321        C324   1.272       .  A
O321      Co1280   1.978       .  S
O322        C323   1.260       .  A
O322       Co337   1.976       .  S
C323        C601   1.489       .  S
C324        C386   1.491       .  S
C325        C441   1.481       .  S
C326        C473   1.502       .  S
O327        C340   1.271       .  A
O327       Co649   1.897       .  S
O328        C341   1.261       .  A
O328       Co964   1.961       .  S
O329        C342   1.279       .  A
O330        C343   1.270       .  A
O330      Co1594   2.021   1_456  S
O331        C343   1.259       .  A
O331       Co336   1.973       .  S
O332        C342   1.271       .  A
O333        C340   1.296       .  A
O333       Co338   2.114   1_556  S
O334        C341   1.277       .  A
O334      Co1279   2.033   1_556  S
Co335       O948   2.120       .  S
Co335       O641   1.898       .  S
Co335       O339   1.997       .  S
Co336       O633   2.038   1_546  S
Co336       O956   1.965   1_545  S
Co336      O1909   2.017   1_545  S
Co337      O1573   1.960       .  S
Co337      O1276   2.031       .  S
Co337       O339   2.024       .  S
Co338      O1263   1.977       .  S
Co338      O1586   2.016   1_554  S
Co338       O653   1.993   1_544  S
O339      Co1906   2.020       .  S
O339       Co652   1.998       .  S
C340        C537   1.491       .  S
C341        C569   1.488       .  S
C342        C514   1.501       .  S
C343        C409   1.496       .  S
O344        C352   1.278       .  A
O344       Co364   2.026       .  S
O345        C353   1.265       .  A
O345       Co365   2.004       .  S
O346        C354   1.266       .  A
O346       Co366   1.899       .  S
O347        C355   1.262       .  A
O347       Co367   1.956       .  S
O348        C354   1.298       .  A
O348       Co365   2.118       .  S
O349        C355   1.274       .  A
O349       Co364   2.032       .  S
O350        C353   1.263       .  A
O350       Co367   1.981       .  S
O351        C352   1.273       .  A
O351       Co366   1.975       .  S
C352        C505   1.489       .  S
C353        C418   1.495       .  S
C354        C578   1.499       .  S
C355        C546   1.494       .  S
O356        C369   1.264       .  A
O356       Co364   1.973       .  S
O357        C370   1.267       .  A
O357       Co365   1.889       .  S
O358        C371   1.262       .  A
O358       Co366   1.994       .  S
O359        C372   1.277       .  A
O359       Co367   2.016       .  S
O360        C372   1.271       .  A
O360       Co365   1.979       .  S
O361        C371   1.264       .  A
O361       Co364   1.984       .  S
O362        C369   1.276       .  A
O362       Co367   2.035       .  S
O363        C370   1.298       .  A
O363       Co366   2.114       .  S
Co364       O368   2.030       .  S
Co365       O368   1.996       .  S
Co366       O368   1.995       .  S
Co367       O368   2.020       .  S
C369        C482   1.490       .  S
C370        C450   1.495       .  S
C371        C610   1.488       .  S
C372        C377   1.499       .  S
C373        C374   1.401       .  A
C373        C378   1.408       .  A
C373        H383   1.084       .  S
C374        C379   1.485       .  S
C374        C375   1.407       .  A
C375        C376   1.403       .  A
C375        C380   1.507       .  S
C376        C377   1.413       .  A
C376        H381   1.083       .  S
C377        C378   1.422       .  A
C378        C382   1.507       .  S
C379        C384   1.410       .  A
C379        C388   1.400       .  A
C380        H396   1.110       .  S
C380        H397   1.110       .  S
C380        H398   1.111       .  S
C382        H393   1.109       .  S
C382        H394   1.111       .  S
C382        H395   1.110       .  S
C384        C385   1.403       .  A
C384        C389   1.507       .  S
C385        C386   1.406       .  A
C385        H390   1.083       .  S
C386        C387   1.424       .  A
C387        C388   1.407       .  A
C387        C391   1.508       .  S
C388        H392   1.084       .  S
C389        H399   1.111       .  S
C389        H400   1.110       .  S
C389        H401   1.110       .  S
C391        H402   1.109       .  S
C391        H403   1.109       .  S
C391        H404   1.111       .  S
C405        C406   1.396       .  A
C405        C410   1.402       .  A
C405        H415   1.084       .  S
C406        C411   1.483       .  S
C406        C407   1.409       .  A
C407        C408   1.409       .  A
C407        C412   1.505       .  S
C408        C409   1.411       .  A
C408        H413   1.083       .  S
C409        C410   1.426       .  A
C410        C414   1.510       .  S
C411        C416   1.409       .  A
C411        C420   1.400       .  A
C412        H428   1.110       .  S
C412        H429   1.110       .  S
C412        H430   1.111       .  S
C414        H425   1.110       .  S
C414        H426   1.111       .  S
C414        H427   1.110       .  S
C416        C417   1.402       .  A
C416        C421   1.508       .  S
C417        C418   1.409       .  A
C417        H422   1.083       .  S
C418        C419   1.424       .  A
C419        C420   1.408       .  A
C419        C423   1.508       .  S
C420        H424   1.084       .  S
C421        H431   1.111       .  S
C421        H432   1.110       .  S
C421        H433   1.110       .  S
C423        H434   1.110       .  S
C423        H435   1.109       .  S
C423        H436   1.111       .  S
C437        C438   1.402       .  A
C437        C442   1.404       .  A
C437        H447   1.085       .  S
C438        C443   1.481       .  S
C438        C439   1.409       .  A
C439        C440   1.404       .  A
C439        C444   1.506       .  S
C440        C441   1.406       .  A
C440        H445   1.083       .  S
C441        C442   1.416       .  A
C442        C446   1.507       .  S
C443        C448   1.408       .  A
C443        C452   1.399       .  A
C444        H460   1.110       .  S
C444        H461   1.108       .  S
C444        H462   1.108       .  S
C446        H457   1.111       .  S
C446        H458   1.110       .  S
C446        H459   1.107       .  S
C448        C449   1.403       .  A
C448        C453   1.508       .  S
C449        C450   1.411       .  A
C449        H454   1.081       .  S
C450        C451   1.422       .  A
C451        C452   1.405       .  A
C451        C455   1.508       .  S
C452        H456   1.084       .  S
C453        H463   1.111       .  S
C453        H464   1.110       .  S
C453        H465   1.109       .  S
C455        H466   1.110       .  S
C455        H467   1.109       .  S
C455        H468   1.111       .  S
C469        C470   1.402       .  A
C469        C474   1.410       .  A
C469        H479   1.084       .  S
C470        C475   1.491       .  S
C470        C471   1.408       .  A
C471        C472   1.406       .  A
C471        C476   1.506       .  S
C472        C473   1.412       .  A
C472        H477   1.083       .  S
C473        C474   1.423       .  A
C474        C478   1.508       .  S
C475        C480   1.411       .  A
C475        C484   1.403       .  A
C476        H492   1.110       .  S
C476        H493   1.110       .  S
C476        H494   1.111       .  S
C478        H489   1.111       .  S
C478        H490   1.110       .  S
C478        H491   1.110       .  S
C480        C481   1.406       .  A
C480        C485   1.506       .  S
C481        C482   1.406       .  A
C481        H486   1.083       .  S
C482        C483   1.417       .  A
C483        C484   1.409       .  A
C483        C487   1.507       .  S
C484        H488   1.084       .  S
C485        H495   1.111       .  S
C485        H496   1.110       .  S
C485        H497   1.110       .  S
C487        H498   1.111       .  S
C487        H499   1.108       .  S
C487        H500   1.110       .  S
C501        C502   1.401       .  A
C501        C506   1.405       .  A
C501        H511   1.084       .  S
C502        C507   1.488       .  S
C502        C503   1.411       .  A
C503        C504   1.406       .  A
C503        C508   1.506       .  S
C504        C505   1.406       .  A
C504        H509   1.080       .  S
C505        C506   1.418       .  A
C506        C510   1.505       .  S
C507        C512   1.408       .  A
C507        C516   1.403       .  A
C508        H524   1.109       .  S
C508        H525   1.111       .  S
C508        H526   1.111       .  S
C510        H521   1.111       .  S
C510        H522   1.108       .  S
C510        H523   1.107       .  S
C512        C513   1.402       .  A
C512        C517   1.508       .  S
C513        C514   1.412       .  A
C513        H518   1.083       .  S
C514        C515   1.423       .  A
C515        C516   1.410       .  A
C515        C519   1.507       .  S
C516        H520   1.084       .  S
C517        H527   1.111       .  S
C517        H528   1.109       .  S
C517        H529   1.110       .  S
C519        H530   1.111       .  S
C519        H531   1.110       .  S
C519        H532   1.109       .  S
C533        C534   1.396       .  A
C533        C538   1.403       .  A
C533        H543   1.085       .  S
C534        C539   1.481       .  S
C534        C535   1.411       .  A
C535        C536   1.406       .  A
C535        C540   1.506       .  S
C536        C537   1.406       .  A
C536        H541   1.084       .  S
C537        C538   1.424       .  A
C538        C542   1.507       .  S
C539        C544   1.407       .  A
C539        C548   1.400       .  A
C540        H556   1.110       .  S
C540        H557   1.110       .  S
C540        H558   1.111       .  S
C542        H553   1.111       .  S
C542        H554   1.108       .  S
C542        H555   1.108       .  S
C544        C545   1.400       .  A
C544        C549   1.507       .  S
C545        C546   1.410       .  A
C545        H550   1.083       .  S
C546        C547   1.423       .  A
C547        C548   1.408       .  A
C547        C551   1.508       .  S
C548        H552   1.084       .  S
C549        H559   1.111       .  S
C549        H560   1.110       .  S
C549        H561   1.110       .  S
C551        H562   1.111       .  S
C551        H563   1.109       .  S
C551        H564   1.105       .  S
C565        C566   1.401       .  A
C565        C570   1.407       .  A
C565        H575   1.084       .  S
C566        C571   1.486       .  S
C566        C567   1.410       .  A
C567        C568   1.405       .  A
C567        C572   1.506       .  S
C568        C569   1.407       .  A
C568        H573   1.083       .  S
C569        C570   1.420       .  A
C570        C574   1.509       .  S
C571        C576   1.408       .  A
C571        C580   1.401       .  A
C572        H588   1.110       .  S
C572        H589   1.109       .  S
C572        H590   1.109       .  S
C574        H585   1.111       .  S
C574        H586   1.109       .  S
C574        H587   1.111       .  S
C576        C577   1.404       .  A
C576        C581   1.507       .  S
C577        C578   1.410       .  A
C577        H582   1.083       .  S
C578        C579   1.423       .  A
C579        C580   1.409       .  A
C579        C583   1.506       .  S
C580        H584   1.084       .  S
C581        H591   1.111       .  S
C581        H592   1.110       .  S
C581        H593   1.109       .  S
C583        H594   1.109       .  S
C583        H595   1.107       .  S
C583        H596   1.111       .  S
C597        C598   1.398       .  A
C597        C602   1.403       .  A
C597        H607   1.085       .  S
C598        C603   1.475       .  S
C598        C599   1.405       .  A
C599        C600   1.401       .  A
C599        C604   1.506       .  S
C600        C601   1.410       .  A
C600        H605   1.083       .  S
C601        C602   1.423       .  A
C602        C606   1.509       .  S
C603        C608   1.408       .  A
C603        C612   1.397       .  A
C604        H620   1.110       .  S
C604        H621   1.110       .  S
C604        H622   1.111       .  S
C606        H617   1.110       .  S
C606        H618   1.111       .  S
C606        H619   1.110       .  S
C608        C609   1.400       .  A
C608        C613   1.508       .  S
C609        C610   1.408       .  A
C609        H614   1.084       .  S
C610        C611   1.424       .  A
C611        C612   1.404       .  A
C611        C615   1.509       .  S
C612        H616   1.084       .  S
C613        H623   1.111       .  S
C613        H624   1.110       .  S
C613        H625   1.110       .  S
C615        H626   1.109       .  S
C615        H627   1.108       .  S
C615        H628   1.111       .  S
O629        C637   1.270       .  A
O629       Co649   2.016   1_564  S
O630        C638   1.276       .  A
O630       Co964   2.019   1_554  S
O631        C639   1.262       .  A
O631      Co1907   1.959       .  S
O632        C640   1.269       .  A
O632       Co966   1.897       .  S
O633        C639   1.277       .  A
O634        C640   1.298       .  A
O635        C638   1.272       .  A
O635      Co2222   1.974       .  S
O636        C637   1.261       .  A
O636       Co651   1.977       .  S
C637        C915   1.497       .  S
C638        C700   1.489       .  S
C639        C755   1.487       .  S
C640        C787   1.504       .  S
O641        C654   1.270       .  A
O642        C655   1.262       .  A
O643        C656   1.279       .  A
O643       Co965   2.020       .  S
O644        C657   1.270       .  A
O644      Co1908   2.015       .  S
O645        C657   1.260       .  A
O645       Co650   1.973       .  S
O646        C656   1.270       .  A
O646       Co963   1.973   1_565  S
O647        C654   1.295       .  A
O647       Co652   2.110       .  S
O648        C655   1.274       .  A
O648      Co2221   2.024       .  S
Co649       O960   1.983   1_545  S
Co649       O653   2.002   1_545  S
Co650       O944   2.019       .  S
Co650      O1595   2.020       .  S
Co651      O1887   1.964       .  S
Co651       O957   2.013   1_554  S
Co651      O2218   2.038   1_554  S
Co651       O653   2.018   1_554  S
Co652       O946   1.901       .  S
Co652      O2205   1.973       .  S
Co652      O1900   2.018       .  S
O653      Co1592   2.025   1_565  S
C654        C851   1.489       .  S
C655        C883   1.484       .  S
C656        C828   1.498       .  S
C657        C723   1.495       .  S
O658        C666   1.276       .  A
O658       Co678   2.019       .  S
O659        C667   1.263       .  A
O659       Co679   2.001       .  S
O660        C668   1.264       .  A
O660       Co680   1.888       .  S
O661        C669   1.262       .  A
O661       Co681   1.958       .  S
O662        C668   1.300       .  A
O662       Co679   2.123       .  S
O663        C669   1.276       .  A
O663       Co678   2.040       .  S
O664        C667   1.263       .  A
O664       Co681   1.982       .  S
O665        C666   1.273       .  A
O665       Co680   1.980       .  S
C666        C819   1.490       .  S
C667        C732   1.493       .  S
C668        C892   1.497       .  S
C669        C860   1.499       .  S
O670        C683   1.263       .  A
O670       Co678   1.967       .  S
O671        C684   1.266       .  A
O671       Co679   1.892       .  S
O672        C685   1.262       .  A
O672       Co680   1.997       .  S
O673        C686   1.277       .  A
O673       Co681   2.017       .  S
O674        C686   1.271       .  A
O674       Co679   1.981       .  S
O675        C685   1.265       .  A
O675       Co678   1.989       .  S
O676        C683   1.277       .  A
O676       Co681   2.038       .  S
O677        C684   1.300       .  A
O677       Co680   2.122       .  S
Co678       O682   2.033       .  S
Co679       O682   2.000       .  S
Co680       O682   1.995       .  S
Co681       O682   2.025       .  S
C683        C796   1.494       .  S
C684        C764   1.499       .  S
C685        C924   1.496       .  S
C686        C691   1.501       .  S
C687        C688   1.402       .  A
C687        C692   1.409       .  A
C687        H697   1.084       .  S
C688        C693   1.487       .  S
C688        C689   1.407       .  A
C689        C690   1.404       .  A
C689        C694   1.508       .  S
C690        C691   1.412       .  A
C690        H695   1.083       .  S
C691        C692   1.422       .  A
C692        C696   1.507       .  S
C693        C698   1.411       .  A
C693        C702   1.401       .  A
C694        H710   1.110       .  S
C694        H711   1.111       .  S
C694        H712   1.110       .  S
C696        H707   1.108       .  S
C696        H708   1.111       .  S
C696        H709   1.110       .  S
C698        C699   1.403       .  A
C698        C703   1.507       .  S
C699        C700   1.406       .  A
C699        H704   1.084       .  S
C700        C701   1.421       .  A
C701        C702   1.407       .  A
C701        C705   1.508       .  S
C702        H706   1.084       .  S
C703        H713   1.111       .  S
C703        H714   1.110       .  S
C703        H715   1.110       .  S
C705        H716   1.109       .  S
C705        H717   1.110       .  S
C705        H718   1.111       .  S
C719        C720   1.397       .  A
C719        C724   1.403       .  A
C719        H729   1.084       .  S
C720        C725   1.481       .  S
C720        C721   1.408       .  A
C721        C722   1.406       .  A
C721        C726   1.507       .  S
C722        C723   1.410       .  A
C722        H727   1.083       .  S
C723        C724   1.425       .  A
C724        C728   1.510       .  S
C725        C730   1.409       .  A
C725        C734   1.400       .  A
C726        H742   1.110       .  S
C726        H743   1.109       .  S
C726        H744   1.111       .  S
C728        H739   1.110       .  S
C728        H740   1.111       .  S
C728        H741   1.110       .  S
C730        C731   1.401       .  A
C730        C735   1.509       .  S
C731        C732   1.408       .  A
C731        H736   1.083       .  S
C732        C733   1.423       .  A
C733        C734   1.408       .  A
C733        C737   1.509       .  S
C734        H738   1.084       .  S
C735        H745   1.111       .  S
C735        H746   1.110       .  S
C735        H747   1.108       .  S
C737        H748   1.110       .  S
C737        H749   1.109       .  S
C737        H750   1.111       .  S
C751        C752   1.401       .  A
C751        C756   1.405       .  A
C751        H761   1.085       .  S
C752        C757   1.487       .  S
C752        C753   1.411       .  A
C753        C754   1.408       .  A
C753        C758   1.506       .  S
C754        C755   1.407       .  A
C754        H759   1.083       .  S
C755        C756   1.419       .  A
C756        C760   1.508       .  S
C757        C762   1.409       .  A
C757        C766   1.401       .  A
C758        H774   1.110       .  S
C758        H775   1.109       .  S
C758        H776   1.109       .  S
C760        H771   1.110       .  S
C760        H772   1.111       .  S
C760        H773   1.107       .  S
C762        C763   1.405       .  A
C762        C767   1.507       .  S
C763        C764   1.411       .  A
C763        H768   1.083       .  S
C764        C765   1.425       .  A
C765        C766   1.408       .  A
C765        C769   1.509       .  S
C766        H770   1.084       .  S
C767        H777   1.111       .  S
C767        H778   1.110       .  S
C767        H779   1.109       .  S
C769        H780   1.110       .  S
C769        H781   1.108       .  S
C769        H782   1.111       .  S
C783        C784   1.402       .  A
C783        C788   1.411       .  A
C783        H793   1.084       .  S
C784        C789   1.493       .  S
C784        C785   1.409       .  A
C785        C786   1.408       .  A
C785        C790   1.506       .  S
C786        C787   1.413       .  A
C786        H791   1.083       .  S
C787        C788   1.422       .  A
C788        C792   1.507       .  S
C789        C794   1.411       .  A
C789        C798   1.403       .  A
C790        H806   1.110       .  S
C790        H807   1.110       .  S
C790        H808   1.111       .  S
C792        H803   1.111       .  S
C792        H804   1.110       .  S
C792        H805   1.110       .  S
C794        C795   1.408       .  A
C794        C799   1.506       .  S
C795        C796   1.408       .  A
C795        H800   1.084       .  S
C796        C797   1.420       .  A
C797        C798   1.409       .  A
C797        C801   1.508       .  S
C798        H802   1.084       .  S
C799        H809   1.111       .  S
C799        H810   1.110       .  S
C799        H811   1.110       .  S
C801        H812   1.111       .  S
C801        H813   1.109       .  S
C801        H814   1.111       .  S
C815        C816   1.399       .  A
C815        C820   1.405       .  A
C815        H825   1.085       .  S
C816        C821   1.485       .  S
C816        C817   1.411       .  A
C817        C818   1.405       .  A
C817        C822   1.506       .  S
C818        C819   1.406       .  A
C818        H823   1.084       .  S
C819        C820   1.421       .  A
C820        C824   1.506       .  S
C821        C826   1.407       .  A
C821        C830   1.402       .  A
C822        H838   1.110       .  S
C822        H839   1.110       .  S
C822        H840   1.111       .  S
C824        H835   1.111       .  S
C824        H836   1.108       .  S
C824        H837   1.108       .  S
C826        C827   1.402       .  A
C826        C831   1.508       .  S
C827        C828   1.412       .  A
C827        H832   1.084       .  S
C828        C829   1.423       .  A
C829        C830   1.409       .  A
C829        C833   1.508       .  S
C830        H834   1.084       .  S
C831        H841   1.111       .  S
C831        H842   1.110       .  S
C831        H843   1.111       .  S
C833        H844   1.111       .  S
C833        H845   1.110       .  S
C833        H846   1.110       .  S
C847        C848   1.397       .  A
C847        C852   1.404       .  A
C847        H857   1.085       .  S
C848        C853   1.484       .  S
C848        C849   1.412       .  A
C849        C850   1.406       .  A
C849        C854   1.506       .  S
C850        C851   1.405       .  A
C850        H855   1.084       .  S
C851        C852   1.423       .  A
C852        C856   1.507       .  S
C853        C858   1.407       .  A
C853        C862   1.401       .  A
C854        H870   1.110       .  S
C854        H871   1.110       .  S
C854        H872   1.111       .  S
C856        H867   1.111       .  S
C856        H868   1.107       .  S
C856        H869   1.109       .  S
C858        C859   1.402       .  A
C858        C863   1.507       .  S
C859        C860   1.411       .  A
C859        H864   1.084       .  S
C860        C861   1.424       .  A
C861        C862   1.409       .  A
C861        C865   1.508       .  S
C862        H866   1.084       .  S
C863        H873   1.111       .  S
C863        H874   1.110       .  S
C863        H875   1.110       .  S
C865        H876   1.111       .  S
C865        H877   1.109       .  S
C865        H878   1.107       .  S
C879        C880   1.401       .  A
C879        C884   1.404       .  A
C879        H889   1.085       .  S
C880        C885   1.482       .  S
C880        C881   1.410       .  A
C881        C882   1.404       .  A
C881        C886   1.507       .  S
C882        C883   1.407       .  A
C882        H887   1.084       .  S
C883        C884   1.419       .  A
C884        C888   1.508       .  S
C885        C890   1.407       .  A
C885        C894   1.400       .  A
C886        H902   1.110       .  S
C886        H903   1.108       .  S
C886        H904   1.110       .  S
C888        H899   1.111       .  S
C888        H900   1.111       .  S
C888        H901   1.107       .  S
C890        C891   1.403       .  A
C890        C895   1.507       .  S
C891        C892   1.410       .  A
C891        H896   1.081       .  S
C892        C893   1.425       .  A
C893        C894   1.407       .  A
C893        C897   1.508       .  S
C894        H898   1.084       .  S
C895        H905   1.111       .  S
C895        H906   1.110       .  S
C895        H907   1.109       .  S
C897        H908   1.110       .  S
C897        H909   1.109       .  S
C897        H910   1.111       .  S
C911        C912   1.398       .  A
C911        C916   1.404       .  A
C911        H921   1.084       .  S
C912        C917   1.485       .  S
C912        C913   1.408       .  A
C913        C914   1.408       .  A
C913        C918   1.505       .  S
C914        C915   1.411       .  A
C914        H919   1.084       .  S
C915        C916   1.425       .  A
C916        C920   1.510       .  S
C917        C922   1.409       .  A
C917        C926   1.400       .  A
C918        H934   1.111       .  S
C918        H935   1.110       .  S
C918        H936   1.111       .  S
C920        H931   1.110       .  S
C920        H932   1.111       .  S
C920        H933   1.110       .  S
C922        C923   1.402       .  A
C922        C927   1.507       .  S
C923        C924   1.408       .  A
C923        H928   1.083       .  S
C924        C925   1.425       .  A
C925        C926   1.409       .  A
C925        C929   1.509       .  S
C926        H930   1.084       .  S
C927        H937   1.111       .  S
C927        H938   1.110       .  S
C927        H939   1.110       .  S
C929        H940   1.110       .  S
C929        H941   1.110       .  S
C929        H942   1.111       .  S
O943        C951   1.267       .  A
O943       Co963   2.008   1_565  S
O944        C952   1.276       .  A
O945        C953   1.263       .  A
O945      Co2221   1.957       .  S
O946        C954   1.269       .  A
O947        C953   1.277       .  A
O948        C954   1.298       .  A
O949        C952   1.270       .  A
O949      Co1908   1.971       .  S
O950        C951   1.259       .  A
O950       Co965   1.973       .  S
C951       C1229   1.490       .  S
C952       C1014   1.487       .  S
C953       C1069   1.483       .  S
C954       C1101   1.506       .  S
O955        C968   1.270       .  A
O956        C969   1.261       .  A
O957        C970   1.276       .  A
O958        C971   1.269       .  A
O958      Co2222   2.013   1_556  S
O959        C971   1.260       .  A
O959       Co964   1.975       .  S
O960        C970   1.271       .  A
O961        C968   1.294       .  A
O961       Co966   2.111   1_556  S
O962        C969   1.277       .  A
O962      Co1907   2.037   1_556  S
Co963       O967   2.000   1_545  S
Co964      O1281   2.022       .  S
Co965      O2201   1.966       .  S
Co965      O1904   2.025       .  S
Co965       O967   2.018       .  S
Co966      O1891   1.974       .  S
Co966      O2214   2.015   1_554  S
O967      Co1278   2.021       .  S
C968       C1165   1.488       .  S
C969       C1197   1.491       .  S
C970       C1142   1.500       .  S
C971       C1037   1.495       .  S
O972        C980   1.276       .  A
O972       Co992   2.019       .  S
O973        C981   1.266       .  A
O973       Co993   2.009       .  S
O974        C982   1.265       .  A
O974       Co994   1.893       .  S
O975        C983   1.262       .  A
O975       Co995   1.961       .  S
O976        C982   1.298       .  A
O976       Co993   2.116       .  S
O977        C983   1.275       .  A
O977       Co992   2.038       .  S
O978        C981   1.264       .  A
O978       Co995   1.985       .  S
O979        C980   1.274       .  A
O979       Co994   1.979       .  S
C980       C1133   1.492       .  S
C981       C1046   1.498       .  S
C982       C1206   1.497       .  S
C983       C1174   1.499       .  S
O984        C997   1.263       .  A
O984       Co992   1.968       .  S
O985        C998   1.267       .  A
O985       Co993   1.894       .  S
O986        C999   1.263       .  A
O986       Co994   1.998       .  S
O987       C1000   1.276       .  A
O987       Co995   2.011       .  S
O988       C1000   1.270       .  A
O988       Co993   1.975       .  S
O989        C999   1.265       .  A
O989       Co992   1.988       .  S
O990        C997   1.278       .  A
O990       Co995   2.042       .  S
O991        C998   1.298       .  A
O991       Co994   2.116       .  S
Co992       O996   2.031       .  S
Co993       O996   2.003       .  S
Co994       O996   1.995       .  S
Co995       O996   2.025       .  S
C997       C1110   1.495       .  S
C998       C1078   1.497       .  S
C999       C1238   1.496       .  S
C1000      C1005   1.495       .  S
C1001      C1002   1.401       .  A
C1001      C1006   1.407       .  A
C1001      H1011   1.084       .  S
C1002      C1007   1.480       .  S
C1002      C1003   1.405       .  A
C1003      C1004   1.401       .  A
C1003      C1008   1.508       .  S
C1004      C1005   1.413       .  A
C1004      H1009   1.083       .  S
C1005      C1006   1.422       .  A
C1006      C1010   1.508       .  S
C1007      C1012   1.409       .  A
C1007      C1016   1.399       .  A
C1008      H1024   1.110       .  S
C1008      H1025   1.110       .  S
C1008      H1026   1.111       .  S
C1010      H1021   1.109       .  S
C1010      H1022   1.111       .  S
C1010      H1023   1.110       .  S
C1012      C1013   1.402       .  A
C1012      C1017   1.507       .  S
C1013      C1014   1.407       .  A
C1013      H1018   1.084       .  S
C1014      C1015   1.422       .  A
C1015      C1016   1.405       .  A
C1015      C1019   1.508       .  S
C1016      H1020   1.084       .  S
C1017      H1027   1.111       .  S
C1017      H1028   1.110       .  S
C1017      H1029   1.110       .  S
C1019      H1030   1.109       .  S
C1019      H1031   1.109       .  S
C1019      H1032   1.111       .  S
C1033      C1034   1.399       .  A
C1033      C1038   1.405       .  A
C1033      H1043   1.085       .  S
C1034      C1039   1.485       .  S
C1034      C1035   1.409       .  A
C1035      C1036   1.406       .  A
C1035      C1040   1.507       .  S
C1036      C1037   1.410       .  A
C1036      H1041   1.084       .  S
C1037      C1038   1.424       .  A
C1038      C1042   1.509       .  S
C1039      C1044   1.410       .  A
C1039      C1048   1.401       .  A
C1040      H1056   1.110       .  S
C1040      H1057   1.108       .  S
C1040      H1058   1.111       .  S
C1042      H1053   1.110       .  S
C1042      H1054   1.111       .  S
C1042      H1055   1.111       .  S
C1044      C1045   1.403       .  A
C1044      C1049   1.509       .  S
C1045      C1046   1.409       .  A
C1045      H1050   1.083       .  S
C1046      C1047   1.424       .  A
C1047      C1048   1.409       .  A
C1047      C1051   1.508       .  S
C1048      H1052   1.084       .  S
C1049      H1059   1.111       .  S
C1049      H1060   1.110       .  S
C1049      H1061   1.108       .  S
C1051      H1062   1.109       .  S
C1051      H1063   1.108       .  S
C1051      H1064   1.111       .  S
C1065      C1066   1.400       .  A
C1065      C1070   1.403       .  A
C1065      H1075   1.085       .  S
C1066      C1071   1.483       .  S
C1066      C1067   1.410       .  A
C1067      C1068   1.405       .  A
C1067      C1072   1.506       .  S
C1068      C1069   1.406       .  A
C1068      H1073   1.084       .  S
C1069      C1070   1.419       .  A
C1070      C1074   1.508       .  S
C1071      C1076   1.407       .  A
C1071      C1080   1.400       .  A
C1072      H1088   1.110       .  S
C1072      H1089   1.109       .  S
C1072      H1090   1.109       .  S
C1074      H1085   1.110       .  S
C1074      H1086   1.111       .  S
C1074      H1087   1.107       .  S
C1076      C1077   1.404       .  A
C1076      C1081   1.507       .  S
C1077      C1078   1.412       .  A
C1077      H1082   1.083       .  S
C1078      C1079   1.423       .  A
C1079      C1080   1.406       .  A
C1079      C1083   1.508       .  S
C1080      H1084   1.085       .  S
C1081      H1091   1.111       .  S
C1081      H1092   1.110       .  S
C1081      H1093   1.109       .  S
C1083      H1094   1.110       .  S
C1083      H1095   1.109       .  S
C1083      H1096   1.111       .  S
C1097      C1098   1.403       .  A
C1097      C1102   1.412       .  A
C1097      H1107   1.084       .  S
C1098      C1103   1.494       .  S
C1098      C1099   1.409       .  A
C1099      C1100   1.408       .  A
C1099      C1104   1.506       .  S
C1100      C1101   1.413       .  A
C1100      H1105   1.083       .  S
C1101      C1102   1.423       .  A
C1102      C1106   1.507       .  S
C1103      C1108   1.412       .  A
C1103      C1112   1.403       .  A
C1104      H1120   1.110       .  S
C1104      H1121   1.110       .  S
C1104      H1122   1.111       .  S
C1106      H1117   1.111       .  S
C1106      H1118   1.110       .  S
C1106      H1119   1.109       .  S
C1108      C1109   1.409       .  A
C1108      C1113   1.506       .  S
C1109      C1110   1.408       .  A
C1109      H1114   1.084       .  S
C1110      C1111   1.420       .  A
C1111      C1112   1.409       .  A
C1111      C1115   1.508       .  S
C1112      H1116   1.084       .  S
C1113      H1123   1.111       .  S
C1113      H1124   1.110       .  S
C1113      H1125   1.110       .  S
C1115      H1126   1.111       .  S
C1115      H1127   1.108       .  S
C1115      H1128   1.110       .  S
C1129      C1130   1.399       .  A
C1129      C1134   1.405       .  A
C1129      H1139   1.084       .  S
C1130      C1135   1.486       .  S
C1130      C1131   1.411       .  A
C1131      C1132   1.406       .  A
C1131      C1136   1.506       .  S
C1132      C1133   1.407       .  A
C1132      H1137   1.083       .  S
C1133      C1134   1.422       .  A
C1134      C1138   1.506       .  S
C1135      C1140   1.407       .  A
C1135      C1144   1.402       .  A
C1136      H1152   1.110       .  S
C1136      H1153   1.111       .  S
C1136      H1154   1.111       .  S
C1138      H1149   1.111       .  S
C1138      H1150   1.109       .  S
C1138      H1151   1.107       .  S
C1140      C1141   1.403       .  A
C1140      C1145   1.508       .  S
C1141      C1142   1.414       .  A
C1141      H1146   1.083       .  S
C1142      C1143   1.422       .  A
C1143      C1144   1.409       .  A
C1143      C1147   1.507       .  S
C1144      H1148   1.084       .  S
C1145      H1155   1.111       .  S
C1145      H1156   1.110       .  S
C1145      H1157   1.111       .  S
C1147      H1158   1.111       .  S
C1147      H1159   1.110       .  S
C1147      H1160   1.109       .  S
C1161      C1162   1.399       .  A
C1161      C1166   1.406       .  A
C1161      H1171   1.085       .  S
C1162      C1167   1.486       .  S
C1162      C1163   1.412       .  A
C1163      C1164   1.405       .  A
C1163      C1168   1.506       .  S
C1164      C1165   1.404       .  A
C1164      H1169   1.083       .  S
C1165      C1166   1.422       .  A
C1166      C1170   1.507       .  S
C1167      C1172   1.408       .  A
C1167      C1176   1.400       .  A
C1168      H1184   1.110       .  S
C1168      H1185   1.110       .  S
C1168      H1186   1.111       .  S
C1170      H1181   1.111       .  S
C1170      H1182   1.109       .  S
C1170      H1183   1.109       .  S
C1172      C1173   1.403       .  A
C1172      C1177   1.507       .  S
C1173      C1174   1.411       .  A
C1173      H1178   1.084       .  S
C1174      C1175   1.424       .  A
C1175      C1176   1.409       .  A
C1175      C1179   1.508       .  S
C1176      H1180   1.084       .  S
C1177      H1187   1.111       .  S
C1177      H1188   1.110       .  S
C1177      H1189   1.110       .  S
C1179      H1190   1.111       .  S
C1179      H1191   1.109       .  S
C1179      H1192   1.106       .  S
C1193      C1194   1.401       .  A
C1193      C1198   1.407       .  A
C1193      H1203   1.084       .  S
C1194      C1199   1.487       .  S
C1194      C1195   1.410       .  A
C1195      C1196   1.406       .  A
C1195      C1200   1.506       .  S
C1196      C1197   1.407       .  A
C1196      H1201   1.083       .  S
C1197      C1198   1.420       .  A
C1198      C1202   1.508       .  S
C1199      C1204   1.408       .  A
C1199      C1208   1.402       .  A
C1200      H1216   1.110       .  S
C1200      H1217   1.110       .  S
C1200      H1218   1.109       .  S
C1202      H1213   1.111       .  S
C1202      H1214   1.108       .  S
C1202      H1215   1.110       .  S
C1204      C1205   1.404       .  A
C1204      C1209   1.507       .  S
C1205      C1206   1.410       .  A
C1205      H1210   1.082       .  S
C1206      C1207   1.422       .  A
C1207      C1208   1.409       .  A
C1207      C1211   1.508       .  S
C1208      H1212   1.084       .  S
C1209      H1219   1.111       .  S
C1209      H1220   1.110       .  S
C1209      H1221   1.110       .  S
C1211      H1222   1.110       .  S
C1211      H1223   1.109       .  S
C1211      H1224   1.111       .  S
C1225      C1226   1.398       .  A
C1225      C1230   1.401       .  A
C1225      H1235   1.085       .  S
C1226      C1231   1.480       .  S
C1226      C1227   1.408       .  A
C1227      C1228   1.406       .  A
C1227      C1232   1.505       .  S
C1228      C1229   1.410       .  A
C1228      H1233   1.084       .  S
C1229      C1230   1.423       .  A
C1230      C1234   1.510       .  S
C1231      C1236   1.409       .  A
C1231      C1240   1.398       .  A
C1232      H1248   1.110       .  S
C1232      H1249   1.110       .  S
C1232      H1250   1.111       .  S
C1234      H1245   1.110       .  S
C1234      H1246   1.111       .  S
C1234      H1247   1.110       .  S
C1236      C1237   1.402       .  A
C1236      C1241   1.508       .  S
C1237      C1238   1.409       .  A
C1237      H1242   1.084       .  S
C1238      C1239   1.426       .  A
C1239      C1240   1.407       .  A
C1239      C1243   1.509       .  S
C1240      H1244   1.084       .  S
C1241      H1251   1.111       .  S
C1241      H1252   1.110       .  S
C1241      H1253   1.110       .  S
C1243      H1254   1.110       .  S
C1243      H1255   1.110       .  S
C1243      H1256   1.111       .  S
O1257      C1265   1.267       .  A
O1257     Co1277   2.008   1_554  S
O1258      C1266   1.275       .  A
O1258     Co1592   2.019   1_554  S
O1259      C1267   1.260       .  A
O1260      C1268   1.270       .  A
O1260     Co1594   1.898       .  S
O1261      C1267   1.275       .  A
O1261     Co2220   2.032   1_554  S
O1262      C1268   1.298       .  A
O1262     Co1905   2.118   1_554  S
O1263      C1266   1.272       .  A
O1264      C1265   1.259       .  A
O1264     Co1279   1.972   1_655  S
C1265      C1543   1.488       .  S
C1266      C1328   1.491       .  S
C1267      C1383   1.483       .  S
C1268      C1415   1.504       .  S
O1269      C1282   1.268       .  A
O1269     Co2219   1.895       .  S
O1270      C1283   1.261       .  A
O1270     Co1906   1.962       .  S
O1271      C1284   1.279       .  A
O1271     Co1593   2.017   1_655  S
O1272      C1285   1.269       .  A
O1273      C1285   1.260       .  A
O1273     Co1278   1.975   1_545  S
O1274      C1284   1.270       .  A
O1274     Co1591   1.976       .  S
O1275      C1282   1.295       .  A
O1275     Co1280   2.114   1_655  S
O1276      C1283   1.276       .  A
Co1277     O1890   2.127   1_556  S
Co1277     O2211   1.890       .  S
Co1277     O1588   1.987       .  S
Co1277     O1281   2.001   1_655  S
Co1278     O1572   2.015   1_565  S
Co1278     O2203   2.036       .  S
Co1278     O1898   1.966       .  S
Co1279     O1585   2.012   1_454  S
Co1279     O1281   2.017   1_554  S
Co1280     O1574   1.894   1_455  S
Co1280     O2223   1.993   1_545  S
O1281     Co2222   1.990   1_556  S
C1282      C1479   1.488       .  S
C1283      C1511   1.489       .  S
C1284      C1456   1.497       .  S
C1285      C1351   1.491       .  S
O1286      C1294   1.275       .  A
O1286     Co1306   2.016       .  S
O1287      C1295   1.263       .  A
O1287     Co1307   2.001       .  S
O1288      C1296   1.268       .  A
O1288     Co1308   1.893       .  S
O1289      C1297   1.263       .  A
O1289     Co1309   1.958       .  S
O1290      C1296   1.297       .  A
O1290     Co1307   2.114       .  S
O1291      C1297   1.276       .  A
O1291     Co1306   2.037       .  S
O1292      C1295   1.262       .  A
O1292     Co1309   1.980       .  S
O1293      C1294   1.274       .  A
O1293     Co1308   1.980       .  S
C1294      C1447   1.489       .  S
C1295      C1360   1.492       .  S
C1296      C1520   1.494       .  S
C1297      C1488   1.496       .  S
O1298      C1311   1.263       .  A
O1298     Co1306   1.968       .  S
O1299      C1312   1.265       .  A
O1299     Co1307   1.893       .  S
O1300      C1313   1.264       .  A
O1300     Co1308   1.995       .  S
O1301      C1314   1.278       .  A
O1301     Co1309   2.017       .  S
O1302      C1314   1.270       .  A
O1302     Co1307   1.974       .  S
O1303      C1313   1.265       .  A
O1303     Co1306   1.982       .  S
O1304      C1311   1.275       .  A
O1304     Co1309   2.032       .  S
O1305      C1312   1.297       .  A
O1305     Co1308   2.118       .  S
Co1306     O1310   2.023       .  S
Co1307     O1310   1.995       .  S
Co1308     O1310   1.996       .  S
Co1309     O1310   2.022       .  S
C1311      C1424   1.492       .  S
C1312      C1392   1.497       .  S
C1313      C1552   1.490       .  S
C1314      C1319   1.496       .  S
C1315      C1316   1.402       .  A
C1315      C1320   1.408       .  A
C1315      H1325   1.084       .  S
C1316      C1321   1.484       .  S
C1316      C1317   1.406       .  A
C1317      C1318   1.401       .  A
C1317      C1322   1.507       .  S
C1318      C1319   1.411       .  A
C1318      H1323   1.083       .  S
C1319      C1320   1.423       .  A
C1320      C1324   1.507       .  S
C1321      C1326   1.411       .  A
C1321      C1330   1.399       .  A
C1322      H1338   1.110       .  S
C1322      H1339   1.110       .  S
C1322      H1340   1.111       .  S
C1324      H1335   1.107       .  S
C1324      H1336   1.111       .  S
C1324      H1337   1.110       .  S
C1326      C1327   1.405       .  A
C1326      C1331   1.507       .  S
C1327      C1328   1.407       .  A
C1327      H1332   1.084       .  S
C1328      C1329   1.422       .  A
C1329      C1330   1.405       .  A
C1329      C1333   1.508       .  S
C1330      H1334   1.085       .  S
C1331      H1341   1.111       .  S
C1331      H1342   1.110       .  S
C1331      H1343   1.111       .  S
C1333      H1344   1.108       .  S
C1333      H1345   1.109       .  S
C1333      H1346   1.111       .  S
C1347      C1348   1.397       .  A
C1347      C1352   1.402       .  A
C1347      H1357   1.085       .  S
C1348      C1353   1.478       .  S
C1348      C1349   1.407       .  A
C1349      C1350   1.404       .  A
C1349      C1354   1.506       .  S
C1350      C1351   1.410       .  A
C1350      H1355   1.083       .  S
C1351      C1352   1.424       .  A
C1352      C1356   1.510       .  S
C1353      C1358   1.409       .  A
C1353      C1362   1.398       .  A
C1354      H1370   1.110       .  S
C1354      H1371   1.109       .  S
C1354      H1372   1.111       .  S
C1356      H1367   1.110       .  S
C1356      H1368   1.111       .  S
C1356      H1369   1.110       .  S
C1358      C1359   1.402       .  A
C1358      C1363   1.509       .  S
C1359      C1360   1.410       .  A
C1359      H1364   1.083       .  S
C1360      C1361   1.423       .  A
C1361      C1362   1.405       .  A
C1361      C1365   1.508       .  S
C1362      H1366   1.084       .  S
C1363      H1373   1.111       .  S
C1363      H1374   1.110       .  S
C1363      H1375   1.109       .  S
C1365      H1376   1.110       .  S
C1365      H1377   1.110       .  S
C1365      H1378   1.111       .  S
C1379      C1380   1.400       .  A
C1379      C1384   1.404       .  A
C1379      H1389   1.084       .  S
C1380      C1385   1.483       .  S
C1380      C1381   1.411       .  A
C1381      C1382   1.405       .  A
C1381      C1386   1.507       .  S
C1382      C1383   1.406       .  A
C1382      H1387   1.083       .  S
C1383      C1384   1.418       .  A
C1384      C1388   1.509       .  S
C1385      C1390   1.407       .  A
C1385      C1394   1.400       .  A
C1386      H1402   1.110       .  S
C1386      H1403   1.109       .  S
C1386      H1404   1.110       .  S
C1388      H1399   1.111       .  S
C1388      H1400   1.109       .  S
C1388      H1401   1.110       .  S
C1390      C1391   1.405       .  A
C1390      C1395   1.507       .  S
C1391      C1392   1.413       .  A
C1391      H1396   1.083       .  S
C1392      C1393   1.423       .  A
C1393      C1394   1.406       .  A
C1393      C1397   1.508       .  S
C1394      H1398   1.084       .  S
C1395      H1405   1.111       .  S
C1395      H1406   1.110       .  S
C1395      H1407   1.109       .  S
C1397      H1408   1.110       .  S
C1397      H1409   1.108       .  S
C1397      H1410   1.111       .  S
C1411      C1412   1.401       .  A
C1411      C1416   1.409       .  A
C1411      H1421   1.084       .  S
C1412      C1417   1.490       .  S
C1412      C1413   1.409       .  A
C1413      C1414   1.408       .  A
C1413      C1418   1.507       .  S
C1414      C1415   1.414       .  A
C1414      H1419   1.083       .  S
C1415      C1416   1.422       .  A
C1416      C1420   1.507       .  S
C1417      C1422   1.411       .  A
C1417      C1426   1.402       .  A
C1418      H1434   1.110       .  S
C1418      H1435   1.110       .  S
C1418      H1436   1.111       .  S
C1420      H1431   1.111       .  S
C1420      H1432   1.110       .  S
C1420      H1433   1.110       .  S
C1422      C1423   1.407       .  A
C1422      C1427   1.506       .  S
C1423      C1424   1.408       .  A
C1423      H1428   1.083       .  S
C1424      C1425   1.419       .  A
C1425      C1426   1.407       .  A
C1425      C1429   1.508       .  S
C1426      H1430   1.084       .  S
C1427      H1437   1.111       .  S
C1427      H1438   1.110       .  S
C1427      H1439   1.109       .  S
C1429      H1440   1.111       .  S
C1429      H1441   1.109       .  S
C1429      H1442   1.111       .  S
C1443      C1444   1.400       .  A
C1443      C1448   1.406       .  A
C1443      H1453   1.084       .  S
C1444      C1449   1.485       .  S
C1444      C1445   1.410       .  A
C1445      C1446   1.405       .  A
C1445      C1450   1.506       .  S
C1446      C1447   1.405       .  A
C1446      H1451   1.082       .  S
C1447      C1448   1.421       .  A
C1448      C1452   1.507       .  S
C1449      C1454   1.406       .  A
C1449      C1458   1.403       .  A
C1450      H1466   1.110       .  S
C1450      H1467   1.110       .  S
C1450      H1468   1.111       .  S
C1452      H1463   1.111       .  S
C1452      H1464   1.108       .  S
C1452      H1465   1.108       .  S
C1454      C1455   1.399       .  A
C1454      C1459   1.508       .  S
C1455      C1456   1.411       .  A
C1455      H1460   1.083       .  S
C1456      C1457   1.423       .  A
C1457      C1458   1.410       .  A
C1457      C1461   1.508       .  S
C1458      H1462   1.084       .  S
C1459      H1469   1.111       .  S
C1459      H1470   1.110       .  S
C1459      H1471   1.110       .  S
C1461      H1472   1.111       .  S
C1461      H1473   1.109       .  S
C1461      H1474   1.109       .  S
C1475      C1476   1.398       .  A
C1475      C1480   1.404       .  A
C1475      H1485   1.084       .  S
C1476      C1481   1.483       .  S
C1476      C1477   1.411       .  A
C1477      C1478   1.405       .  A
C1477      C1482   1.506       .  S
C1478      C1479   1.406       .  A
C1478      H1483   1.083       .  S
C1479      C1480   1.422       .  A
C1480      C1484   1.508       .  S
C1481      C1486   1.407       .  A
C1481      C1490   1.400       .  A
C1482      H1498   1.110       .  S
C1482      H1499   1.110       .  S
C1482      H1500   1.111       .  S
C1484      H1495   1.111       .  S
C1484      H1496   1.109       .  S
C1484      H1497   1.109       .  S
C1486      C1487   1.402       .  A
C1486      C1491   1.507       .  S
C1487      C1488   1.410       .  A
C1487      H1492   1.083       .  S
C1488      C1489   1.423       .  A
C1489      C1490   1.408       .  A
C1489      C1493   1.507       .  S
C1490      H1494   1.084       .  S
C1491      H1501   1.111       .  S
C1491      H1502   1.110       .  S
C1491      H1503   1.110       .  S
C1493      H1504   1.111       .  S
C1493      H1505   1.109       .  S
C1493      H1506   1.105       .  S
C1507      C1508   1.400       .  A
C1507      C1512   1.406       .  A
C1507      H1517   1.084       .  S
C1508      C1513   1.482       .  S
C1508      C1509   1.409       .  A
C1509      C1510   1.404       .  A
C1509      C1514   1.506       .  S
C1510      C1511   1.408       .  A
C1510      H1515   1.083       .  S
C1511      C1512   1.420       .  A
C1512      C1516   1.507       .  S
C1513      C1518   1.407       .  A
C1513      C1522   1.400       .  A
C1514      H1530   1.110       .  S
C1514      H1531   1.110       .  S
C1514      H1532   1.110       .  S
C1516      H1527   1.111       .  S
C1516      H1528   1.109       .  S
C1516      H1529   1.109       .  S
C1518      C1519   1.405       .  A
C1518      C1523   1.507       .  S
C1519      C1520   1.412       .  A
C1519      H1524   1.083       .  S
C1520      C1521   1.421       .  A
C1521      C1522   1.406       .  A
C1521      C1525   1.507       .  S
C1522      H1526   1.084       .  S
C1523      H1533   1.111       .  S
C1523      H1534   1.110       .  S
C1523      H1535   1.110       .  S
C1525      H1536   1.110       .  S
C1525      H1537   1.109       .  S
C1525      H1538   1.111       .  S
C1539      C1540   1.397       .  A
C1539      C1544   1.401       .  A
C1539      H1549   1.085       .  S
C1540      C1545   1.477       .  S
C1540      C1541   1.407       .  A
C1541      C1542   1.405       .  A
C1541      C1546   1.505       .  S
C1542      C1543   1.409       .  A
C1542      H1547   1.084       .  S
C1543      C1544   1.424       .  A
C1544      C1548   1.510       .  S
C1545      C1550   1.408       .  A
C1545      C1554   1.398       .  A
C1546      H1562   1.110       .  S
C1546      H1563   1.110       .  S
C1546      H1564   1.111       .  S
C1548      H1559   1.110       .  S
C1548      H1560   1.111       .  S
C1548      H1561   1.110       .  S
C1550      C1551   1.400       .  A
C1550      C1555   1.507       .  S
C1551      C1552   1.408       .  A
C1551      H1556   1.083       .  S
C1552      C1553   1.424       .  A
C1553      C1554   1.405       .  A
C1553      C1557   1.509       .  S
C1554      H1558   1.084       .  S
C1555      H1565   1.111       .  S
C1555      H1566   1.110       .  S
C1555      H1567   1.110       .  S
C1557      H1568   1.110       .  S
C1557      H1569   1.110       .  S
C1557      H1570   1.111       .  S
O1571      C1579   1.269       .  A
O1571     Co1591   2.011       .  S
O1572      C1580   1.275       .  A
O1573      C1581   1.262       .  A
O1574      C1582   1.269       .  A
O1575      C1581   1.273       .  A
O1575     Co1906   2.023       .  S
O1576      C1582   1.299       .  A
O1576     Co2219   2.122       .  S
O1577      C1580   1.271       .  A
O1578      C1579   1.259       .  A
O1578     Co1593   1.975   1_655  S
C1579      C1857   1.493       .  S
C1580      C1642   1.485       .  S
C1581      C1697   1.477       .  S
C1582      C1729   1.503       .  S
O1583      C1596   1.269       .  A
O1583     Co1905   1.896       .  S
O1584      C1597   1.262       .  A
O1584     Co2220   1.967       .  S
O1585      C1598   1.276       .  A
O1586      C1599   1.270       .  A
O1587      C1599   1.261       .  A
O1587     Co1592   1.978       .  S
O1588      C1598   1.272       .  A
O1589      C1596   1.296       .  A
O1589     Co1594   2.114   1_556  S
O1590      C1597   1.274       .  A
Co1591     O2204   2.118       .  S
Co1591     O1897   1.900       .  S
Co1591     O1595   2.000   1_655  S
Co1592     O1889   2.031   1_546  S
Co1592     O2212   1.966   1_545  S
Co1593     O1595   2.017       .  S
Co1594     O1909   2.000   1_644  S
O1595     Co1908   1.992       .  S
C1596      C1793   1.487       .  S
C1597      C1825   1.486       .  S
C1598      C1770   1.501       .  S
C1599      C1665   1.499       .  S
O1600      C1608   1.276       .  A
O1600     Co1620   2.019       .  S
O1601      C1609   1.265       .  A
O1601     Co1621   2.006       .  S
O1602      C1610   1.266       .  A
O1602     Co1622   1.895       .  S
O1603      C1611   1.262       .  A
O1603     Co1623   1.957       .  S
O1604      C1610   1.298       .  A
O1604     Co1621   2.120       .  S
O1605      C1611   1.275       .  A
O1605     Co1620   2.039       .  S
O1606      C1609   1.264       .  A
O1606     Co1623   1.983       .  S
O1607      C1608   1.272       .  A
O1607     Co1622   1.976       .  S
C1608      C1761   1.491       .  S
C1609      C1674   1.496       .  S
C1610      C1834   1.498       .  S
C1611      C1802   1.499       .  S
O1612      C1625   1.263       .  A
O1612     Co1620   1.970       .  S
O1613      C1626   1.266       .  A
O1613     Co1621   1.888       .  S
O1614      C1627   1.263       .  A
O1614     Co1622   1.996       .  S
O1615      C1628   1.276       .  A
O1615     Co1623   2.009       .  S
O1616      C1628   1.271       .  A
O1616     Co1621   1.980       .  S
O1617      C1627   1.264       .  A
O1617     Co1620   1.985       .  S
O1618      C1625   1.278       .  A
O1618     Co1623   2.041       .  S
O1619      C1626   1.299       .  A
O1619     Co1622   2.117       .  S
Co1620     O1624   2.029       .  S
Co1621     O1624   1.995       .  S
Co1622     O1624   1.995       .  S
Co1623     O1624   2.019       .  S
C1625      C1738   1.494       .  S
C1626      C1706   1.496       .  S
C1627      C1866   1.492       .  S
C1628      C1633   1.496       .  S
C1629      C1630   1.401       .  A
C1629      C1634   1.407       .  A
C1629      H1639   1.084       .  S
C1630      C1635   1.481       .  S
C1630      C1631   1.405       .  A
C1631      C1632   1.401       .  A
C1631      C1636   1.508       .  S
C1632      C1633   1.413       .  A
C1632      H1637   1.083       .  S
C1633      C1634   1.421       .  A
C1634      C1638   1.507       .  S
C1635      C1640   1.410       .  A
C1635      C1644   1.399       .  A
C1636      H1652   1.110       .  S
C1636      H1653   1.110       .  S
C1636      H1654   1.111       .  S
C1638      H1649   1.109       .  S
C1638      H1650   1.111       .  S
C1638      H1651   1.110       .  S
C1640      C1641   1.401       .  A
C1640      C1645   1.507       .  S
C1641      C1642   1.406       .  A
C1641      H1646   1.084       .  S
C1642      C1643   1.422       .  A
C1643      C1644   1.405       .  A
C1643      C1647   1.508       .  S
C1644      H1648   1.084       .  S
C1645      H1655   1.111       .  S
C1645      H1656   1.110       .  S
C1645      H1657   1.110       .  S
C1647      H1658   1.109       .  S
C1647      H1659   1.108       .  S
C1647      H1660   1.111       .  S
C1661      C1662   1.398       .  A
C1661      C1666   1.404       .  A
C1661      H1671   1.085       .  S
C1662      C1667   1.485       .  S
C1662      C1663   1.409       .  A
C1663      C1664   1.408       .  A
C1663      C1668   1.506       .  S
C1664      C1665   1.412       .  A
C1664      H1669   1.083       .  S
C1665      C1666   1.425       .  A
C1666      C1670   1.509       .  S
C1667      C1672   1.409       .  A
C1667      C1676   1.401       .  A
C1668      H1684   1.110       .  S
C1668      H1685   1.109       .  S
C1668      H1686   1.111       .  S
C1670      H1681   1.110       .  S
C1670      H1682   1.111       .  S
C1670      H1683   1.110       .  S
C1672      C1673   1.401       .  A
C1672      C1677   1.509       .  S
C1673      C1674   1.409       .  A
C1673      H1678   1.083       .  S
C1674      C1675   1.424       .  A
C1675      C1676   1.410       .  A
C1675      C1679   1.508       .  S
C1676      H1680   1.084       .  S
C1677      H1687   1.111       .  S
C1677      H1688   1.110       .  S
C1677      H1689   1.109       .  S
C1679      H1690   1.110       .  S
C1679      H1691   1.108       .  S
C1679      H1692   1.111       .  S
C1693      C1694   1.401       .  A
C1693      C1698   1.402       .  A
C1693      H1703   1.084       .  S
C1694      C1699   1.480       .  S
C1694      C1695   1.410       .  A
C1695      C1696   1.403       .  A
C1695      C1700   1.506       .  S
C1696      C1697   1.405       .  A
C1696      H1701   1.083       .  S
C1697      C1698   1.415       .  A
C1698      C1702   1.508       .  S
C1699      C1704   1.407       .  A
C1699      C1708   1.399       .  A
C1700      H1716   1.110       .  S
C1700      H1717   1.109       .  S
C1700      H1718   1.110       .  S
C1702      H1713   1.111       .  S
C1702      H1714   1.110       .  S
C1702      H1715   1.107       .  S
C1704      C1705   1.403       .  A
C1704      C1709   1.507       .  S
C1705      C1706   1.412       .  A
C1705      H1710   1.083       .  S
C1706      C1707   1.423       .  A
C1707      C1708   1.406       .  A
C1707      C1711   1.508       .  S
C1708      H1712   1.084       .  S
C1709      H1719   1.111       .  S
C1709      H1720   1.110       .  S
C1709      H1721   1.109       .  S
C1711      H1722   1.110       .  S
C1711      H1723   1.109       .  S
C1711      H1724   1.111       .  S
C1725      C1726   1.402       .  A
C1725      C1730   1.410       .  A
C1725      H1735   1.084       .  S
C1726      C1731   1.492       .  S
C1726      C1727   1.409       .  A
C1727      C1728   1.408       .  A
C1727      C1732   1.506       .  S
C1728      C1729   1.413       .  A
C1728      H1733   1.083       .  S
C1729      C1730   1.423       .  A
C1730      C1734   1.507       .  S
C1731      C1736   1.410       .  A
C1731      C1740   1.404       .  A
C1732      H1748   1.110       .  S
C1732      H1749   1.110       .  S
C1732      H1750   1.111       .  S
C1734      H1745   1.111       .  S
C1734      H1746   1.110       .  S
C1734      H1747   1.110       .  S
C1736      C1737   1.407       .  A
C1736      C1741   1.506       .  S
C1737      C1738   1.407       .  A
C1737      H1742   1.083       .  S
C1738      C1739   1.420       .  A
C1739      C1740   1.410       .  A
C1739      C1743   1.508       .  S
C1740      H1744   1.084       .  S
C1741      H1751   1.111       .  S
C1741      H1752   1.110       .  S
C1741      H1753   1.110       .  S
C1743      H1754   1.111       .  S
C1743      H1755   1.109       .  S
C1743      H1756   1.111       .  S
C1757      C1758   1.398       .  A
C1757      C1762   1.403       .  A
C1757      H1767   1.084       .  S
C1758      C1763   1.484       .  S
C1758      C1759   1.411       .  A
C1759      C1760   1.406       .  A
C1759      C1764   1.506       .  S
C1760      C1761   1.407       .  A
C1760      H1765   1.083       .  S
C1761      C1762   1.421       .  A
C1762      C1766   1.505       .  S
C1763      C1768   1.406       .  A
C1763      C1772   1.402       .  A
C1764      H1780   1.110       .  S
C1764      H1781   1.110       .  S
C1764      H1782   1.111       .  S
C1766      H1777   1.111       .  S
C1766      H1778   1.109       .  S
C1766      H1779   1.107       .  S
C1768      C1769   1.401       .  A
C1768      C1773   1.508       .  S
C1769      C1770   1.413       .  A
C1769      H1774   1.083       .  S
C1770      C1771   1.422       .  A
C1771      C1772   1.410       .  A
C1771      C1775   1.506       .  S
C1772      H1776   1.084       .  S
C1773      H1783   1.111       .  S
C1773      H1784   1.110       .  S
C1773      H1785   1.110       .  S
C1775      H1786   1.111       .  S
C1775      H1787   1.110       .  S
C1775      H1788   1.109       .  S
C1789      C1790   1.398       .  A
C1789      C1794   1.404       .  A
C1789      H1799   1.085       .  S
C1790      C1795   1.483       .  S
C1790      C1791   1.411       .  A
C1791      C1792   1.406       .  A
C1791      C1796   1.506       .  S
C1792      C1793   1.406       .  A
C1792      H1797   1.084       .  S
C1793      C1794   1.422       .  A
C1794      C1798   1.508       .  S
C1795      C1800   1.407       .  A
C1795      C1804   1.400       .  A
C1796      H1812   1.110       .  S
C1796      H1813   1.110       .  S
C1796      H1814   1.111       .  S
C1798      H1809   1.111       .  S
C1798      H1810   1.109       .  S
C1798      H1811   1.109       .  S
C1800      C1801   1.401       .  A
C1800      C1805   1.508       .  S
C1801      C1802   1.412       .  A
C1801      H1806   1.083       .  S
C1802      C1803   1.424       .  A
C1803      C1804   1.409       .  A
C1803      C1807   1.508       .  S
C1804      H1808   1.084       .  S
C1805      H1815   1.111       .  S
C1805      H1816   1.110       .  S
C1805      H1817   1.110       .  S
C1807      H1818   1.111       .  S
C1807      H1819   1.107       .  S
C1807      H1820   1.106       .  S
C1821      C1822   1.401       .  A
C1821      C1826   1.406       .  A
C1821      H1831   1.084       .  S
C1822      C1827   1.484       .  S
C1822      C1823   1.410       .  A
C1823      C1824   1.405       .  A
C1823      C1828   1.506       .  S
C1824      C1825   1.407       .  A
C1824      H1829   1.084       .  S
C1825      C1826   1.418       .  A
C1826      C1830   1.508       .  S
C1827      C1832   1.406       .  A
C1827      C1836   1.402       .  A
C1828      H1844   1.110       .  S
C1828      H1845   1.110       .  S
C1828      H1846   1.111       .  S
C1830      H1841   1.111       .  S
C1830      H1842   1.109       .  S
C1830      H1843   1.111       .  S
C1832      C1833   1.403       .  A
C1832      C1837   1.507       .  S
C1833      C1834   1.410       .  A
C1833      H1838   1.081       .  S
C1834      C1835   1.423       .  A
C1835      C1836   1.409       .  A
C1835      C1839   1.508       .  S
C1836      H1840   1.084       .  S
C1837      H1847   1.111       .  S
C1837      H1848   1.110       .  S
C1837      H1849   1.109       .  S
C1839      H1850   1.110       .  S
C1839      H1851   1.109       .  S
C1839      H1852   1.111       .  S
C1853      C1854   1.398       .  A
C1853      C1858   1.403       .  A
C1853      H1863   1.085       .  S
C1854      C1859   1.479       .  S
C1854      C1855   1.407       .  A
C1855      C1856   1.404       .  A
C1855      C1860   1.506       .  S
C1856      C1857   1.410       .  A
C1856      H1861   1.084       .  S
C1857      C1858   1.425       .  A
C1858      C1862   1.510       .  S
C1859      C1864   1.409       .  A
C1859      C1868   1.398       .  A
C1860      H1876   1.110       .  S
C1860      H1877   1.110       .  S
C1860      H1878   1.111       .  S
C1862      H1873   1.110       .  S
C1862      H1874   1.111       .  S
C1862      H1875   1.110       .  S
C1864      C1865   1.401       .  A
C1864      C1869   1.508       .  S
C1865      C1866   1.408       .  A
C1865      H1870   1.083       .  S
C1866      C1867   1.424       .  A
C1867      C1868   1.406       .  A
C1867      C1871   1.509       .  S
C1868      H1872   1.084       .  S
C1869      H1879   1.111       .  S
C1869      H1880   1.110       .  S
C1869      H1881   1.110       .  S
C1871      H1882   1.110       .  S
C1871      H1883   1.110       .  S
C1871      H1884   1.111       .  S
O1885      C1893   1.268       .  A
O1885     Co1905   2.006   1_564  S
O1886      C1894   1.276       .  A
O1886     Co2220   2.020   1_554  S
O1887      C1895   1.262       .  A
O1888      C1896   1.267       .  A
O1888     Co2222   1.895   1_655  S
O1889      C1895   1.275       .  A
O1890      C1896   1.300       .  A
O1891      C1894   1.271       .  A
O1892      C1893   1.260       .  A
O1892     Co1907   1.976   1_655  S
C1893      C2171   1.490       .  S
C1894      C1956   1.492       .  S
C1895      C2011   1.481       .  S
C1896      C2043   1.506       .  S
O1897      C1910   1.269       .  A
O1898      C1911   1.261       .  A
O1899      C1912   1.279       .  A
O1899     Co2221   2.021   1_655  S
O1900      C1913   1.269       .  A
O1901      C1913   1.259       .  A
O1901     Co1906   1.972       .  S
O1902      C1912   1.270       .  A
O1902     Co2219   1.977   1_565  S
O1903      C1910   1.296       .  A
O1903     Co1908   2.116   1_655  S
O1904      C1911   1.274       .  A
Co1905     O2216   1.981   1_545  S
Co1905     O1909   1.997   1_645  S
Co1906     O2200   2.024       .  S
Co1907     O2213   2.012   1_454  S
Co1907     O1909   2.021   1_554  S
Co1908     O2202   1.895   1_455  S
C1910      C2107   1.491       .  S
C1911      C2139   1.482       .  S
C1912      C2084   1.499       .  S
C1913      C1979   1.493       .  S
O1914      C1922   1.274       .  A
O1914     Co1934   2.013       .  S
O1915      C1923   1.264       .  A
O1915     Co1935   2.001       .  S
O1916      C1924   1.267       .  A
O1916     Co1936   1.894       .  S
O1917      C1925   1.261       .  A
O1917     Co1937   1.958       .  S
O1918      C1924   1.298       .  A
O1918     Co1935   2.117       .  S
O1919      C1925   1.278       .  A
O1919     Co1934   2.046       .  S
O1920      C1923   1.264       .  A
O1920     Co1937   1.986       .  S
O1921      C1922   1.272       .  A
O1921     Co1936   1.974       .  S
C1922      C2075   1.485       .  S
C1923      C1988   1.496       .  S
C1924      C2148   1.496       .  S
C1925      C2116   1.501       .  S
O1926      C1939   1.260       .  A
O1926     Co1934   1.963       .  S
O1927      C1940   1.266       .  A
O1927     Co1935   1.894       .  S
O1928      C1941   1.264       .  A
O1928     Co1936   1.999       .  S
O1929      C1942   1.277       .  A
O1929     Co1937   2.010       .  S
O1930      C1942   1.271       .  A
O1930     Co1935   1.976       .  S
O1931      C1941   1.264       .  A
O1931     Co1934   1.986       .  S
O1932      C1939   1.278       .  A
O1932     Co1937   2.045       .  S
O1933      C1940   1.297       .  A
O1933     Co1936   2.117       .  S
Co1934     O1938   2.025       .  S
Co1935     O1938   1.991       .  S
Co1936     O1938   1.995       .  S
Co1937     O1938   2.023       .  S
C1939      C2052   1.495       .  S
C1940      C2020   1.498       .  S
C1941      C2180   1.493       .  S
C1942      C1947   1.493       .  S
C1943      C1944   1.401       .  A
C1943      C1948   1.406       .  A
C1943      H1953   1.084       .  S
C1944      C1949   1.484       .  S
C1944      C1945   1.408       .  A
C1945      C1946   1.403       .  A
C1945      C1950   1.507       .  S
C1946      C1947   1.411       .  A
C1946      H1951   1.084       .  S
C1947      C1948   1.420       .  A
C1948      C1952   1.507       .  S
C1949      C1954   1.412       .  A
C1949      C1958   1.399       .  A
C1950      H1966   1.109       .  S
C1950      H1967   1.110       .  S
C1950      H1968   1.111       .  S
C1952      H1963   1.109       .  S
C1952      H1964   1.111       .  S
C1952      H1965   1.110       .  S
C1954      C1955   1.404       .  A
C1954      C1959   1.507       .  S
C1955      C1956   1.407       .  A
C1955      H1960   1.084       .  S
C1956      C1957   1.423       .  A
C1957      C1958   1.405       .  A
C1957      C1961   1.508       .  S
C1958      H1962   1.085       .  S
C1959      H1969   1.111       .  S
C1959      H1970   1.110       .  S
C1959      H1971   1.110       .  S
C1961      H1972   1.109       .  S
C1961      H1973   1.109       .  S
C1961      H1974   1.111       .  S
C1975      C1976   1.398       .  A
C1975      C1980   1.403       .  A
C1975      H1985   1.085       .  S
C1976      C1981   1.482       .  S
C1976      C1977   1.408       .  A
C1977      C1978   1.406       .  A
C1977      C1982   1.505       .  S
C1978      C1979   1.409       .  A
C1978      H1983   1.083       .  S
C1979      C1980   1.425       .  A
C1980      C1984   1.510       .  S
C1981      C1986   1.409       .  A
C1981      C1990   1.399       .  A
C1982      H1998   1.110       .  S
C1982      H1999   1.110       .  S
C1982      H2000   1.111       .  S
C1984      H1995   1.110       .  S
C1984      H1996   1.111       .  S
C1984      H1997   1.110       .  S
C1986      C1987   1.403       .  A
C1986      C1991   1.508       .  S
C1987      C1988   1.409       .  A
C1987      H1992   1.084       .  S
C1988      C1989   1.424       .  A
C1989      C1990   1.407       .  A
C1989      C1993   1.508       .  S
C1990      H1994   1.084       .  S
C1991      H2001   1.111       .  S
C1991      H2002   1.110       .  S
C1991      H2003   1.110       .  S
C1993      H2004   1.110       .  S
C1993      H2005   1.110       .  S
C1993      H2006   1.111       .  S
C2007      C2008   1.402       .  A
C2007      C2012   1.405       .  A
C2007      H2017   1.084       .  S
C2008      C2013   1.484       .  S
C2008      C2009   1.411       .  A
C2009      C2010   1.405       .  A
C2009      C2014   1.506       .  S
C2010      C2011   1.405       .  A
C2010      H2015   1.083       .  S
C2011      C2012   1.416       .  A
C2012      C2016   1.507       .  S
C2013      C2018   1.407       .  A
C2013      C2022   1.401       .  A
C2014      H2030   1.110       .  S
C2014      H2031   1.109       .  S
C2014      H2032   1.109       .  S
C2016      H2027   1.111       .  S
C2016      H2028   1.110       .  S
C2016      H2029   1.107       .  S
C2018      C2019   1.404       .  A
C2018      C2023   1.507       .  S
C2019      C2020   1.411       .  A
C2019      H2024   1.083       .  S
C2020      C2021   1.423       .  A
C2021      C2022   1.408       .  A
C2021      C2025   1.508       .  S
C2022      H2026   1.085       .  S
C2023      H2033   1.111       .  S
C2023      H2034   1.111       .  S
C2023      H2035   1.109       .  S
C2025      H2036   1.111       .  S
C2025      H2037   1.109       .  S
C2025      H2038   1.111       .  S
C2039      C2040   1.402       .  A
C2039      C2044   1.411       .  A
C2039      H2049   1.084       .  S
C2040      C2045   1.494       .  S
C2040      C2041   1.409       .  A
C2041      C2042   1.408       .  A
C2041      C2046   1.507       .  S
C2042      C2043   1.413       .  A
C2042      H2047   1.083       .  S
C2043      C2044   1.424       .  A
C2044      C2048   1.508       .  S
C2045      C2050   1.411       .  A
C2045      C2054   1.403       .  A
C2046      H2062   1.110       .  S
C2046      H2063   1.110       .  S
C2046      H2064   1.111       .  S
C2048      H2059   1.111       .  S
C2048      H2060   1.110       .  S
C2048      H2061   1.110       .  S
C2050      C2051   1.408       .  A
C2050      C2055   1.506       .  S
C2051      C2052   1.407       .  A
C2051      H2056   1.083       .  S
C2052      C2053   1.422       .  A
C2053      C2054   1.410       .  A
C2053      C2057   1.509       .  S
C2054      H2058   1.084       .  S
C2055      H2065   1.111       .  S
C2055      H2066   1.110       .  S
C2055      H2067   1.109       .  S
C2057      H2068   1.111       .  S
C2057      H2069   1.109       .  S
C2057      H2070   1.111       .  S
C2071      C2072   1.400       .  A
C2071      C2076   1.403       .  A
C2071      H2081   1.084       .  S
C2072      C2077   1.483       .  S
C2072      C2073   1.411       .  A
C2073      C2074   1.404       .  A
C2073      C2078   1.506       .  S
C2074      C2075   1.405       .  A
C2074      H2079   1.081       .  S
C2075      C2076   1.419       .  A
C2076      C2080   1.507       .  S
C2077      C2082   1.407       .  A
C2077      C2086   1.402       .  A
C2078      H2094   1.110       .  S
C2078      H2095   1.110       .  S
C2078      H2096   1.111       .  S
C2080      H2091   1.111       .  S
C2080      H2092   1.108       .  S
C2080      H2093   1.108       .  S
C2082      C2083   1.401       .  A
C2082      C2087   1.508       .  S
C2083      C2084   1.412       .  A
C2083      H2088   1.083       .  S
C2084      C2085   1.423       .  A
C2085      C2086   1.409       .  A
C2085      C2089   1.507       .  S
C2086      H2090   1.084       .  S
C2087      H2097   1.110       .  S
C2087      H2098   1.110       .  S
C2087      H2099   1.111       .  S
C2089      H2100   1.111       .  S
C2089      H2101   1.110       .  S
C2089      H2102   1.109       .  S
C2103      C2104   1.398       .  A
C2103      C2108   1.406       .  A
C2103      H2113   1.084       .  S
C2104      C2109   1.488       .  S
C2104      C2105   1.412       .  A
C2105      C2106   1.408       .  A
C2105      C2110   1.506       .  S
C2106      C2107   1.406       .  A
C2106      H2111   1.084       .  S
C2107      C2108   1.422       .  A
C2108      C2112   1.507       .  S
C2109      C2114   1.408       .  A
C2109      C2118   1.401       .  A
C2110      H2126   1.110       .  S
C2110      H2127   1.110       .  S
C2110      H2128   1.111       .  S
C2112      H2123   1.111       .  S
C2112      H2124   1.109       .  S
C2112      H2125   1.109       .  S
C2114      C2115   1.404       .  A
C2114      C2119   1.507       .  S
C2115      C2116   1.412       .  A
C2115      H2120   1.084       .  S
C2116      C2117   1.423       .  A
C2117      C2118   1.410       .  A
C2117      C2121   1.507       .  S
C2118      H2122   1.084       .  S
C2119      H2129   1.111       .  S
C2119      H2130   1.110       .  S
C2119      H2131   1.110       .  S
C2121      H2132   1.111       .  S
C2121      H2133   1.109       .  S
C2121      H2134   1.107       .  S
C2135      C2136   1.403       .  A
C2135      C2140   1.407       .  A
C2135      H2145   1.084       .  S
C2136      C2141   1.482       .  S
C2136      C2137   1.408       .  A
C2137      C2138   1.402       .  A
C2137      C2142   1.506       .  S
C2138      C2139   1.406       .  A
C2138      H2143   1.083       .  S
C2139      C2140   1.417       .  A
C2140      C2144   1.508       .  S
C2141      C2146   1.407       .  A
C2141      C2150   1.400       .  A
C2142      H2158   1.110       .  S
C2142      H2159   1.110       .  S
C2142      H2160   1.109       .  S
C2144      H2155   1.111       .  S
C2144      H2156   1.109       .  S
C2144      H2157   1.111       .  S
C2146      C2147   1.403       .  A
C2146      C2151   1.507       .  S
C2147      C2148   1.411       .  A
C2147      H2152   1.084       .  S
C2148      C2149   1.423       .  A
C2149      C2150   1.406       .  A
C2149      C2153   1.507       .  S
C2150      H2154   1.085       .  S
C2151      H2161   1.111       .  S
C2151      H2162   1.110       .  S
C2151      H2163   1.110       .  S
C2153      H2164   1.109       .  S
C2153      H2165   1.108       .  S
C2153      H2166   1.111       .  S
C2167      C2168   1.398       .  A
C2167      C2172   1.402       .  A
C2167      H2177   1.085       .  S
C2168      C2173   1.480       .  S
C2168      C2169   1.407       .  A
C2169      C2170   1.404       .  A
C2169      C2174   1.505       .  S
C2170      C2171   1.410       .  A
C2170      H2175   1.084       .  S
C2171      C2172   1.423       .  A
C2172      C2176   1.510       .  S
C2173      C2178   1.409       .  A
C2173      C2182   1.398       .  A
C2174      H2190   1.110       .  S
C2174      H2191   1.110       .  S
C2174      H2192   1.111       .  S
C2176      H2187   1.110       .  S
C2176      H2188   1.111       .  S
C2176      H2189   1.110       .  S
C2178      C2179   1.402       .  A
C2178      C2183   1.508       .  S
C2179      C2180   1.409       .  A
C2179      H2184   1.083       .  S
C2180      C2181   1.424       .  A
C2181      C2182   1.405       .  A
C2181      C2185   1.509       .  S
C2182      H2186   1.084       .  S
C2183      H2193   1.111       .  S
C2183      H2194   1.110       .  S
C2183      H2195   1.110       .  S
C2185      H2196   1.110       .  S
C2185      H2197   1.109       .  S
C2185      H2198   1.111       .  S
O2199      C2207   1.266       .  A
O2199     Co2219   2.008   1_565  S
O2200      C2208   1.277       .  A
O2201      C2209   1.264       .  A
O2202      C2210   1.268       .  A
O2203      C2209   1.277       .  A
O2204      C2210   1.297       .  A
O2205      C2208   1.272       .  A
O2206      C2207   1.257       .  A
O2206     Co2221   1.972   1_655  S
C2207      C2485   1.489       .  S
C2208      C2270   1.490       .  S
C2209      C2325   1.488       .  S
C2210      C2357   1.503       .  S
O2211      C2224   1.270       .  A
O2212      C2225   1.263       .  A
O2213      C2226   1.276       .  A
O2214      C2227   1.270       .  A
O2215      C2227   1.260       .  A
O2215     Co2220   1.973       .  S
O2216      C2226   1.271       .  A
O2217      C2224   1.296       .  A
O2217     Co2222   2.113   1_656  S
O2218      C2225   1.278       .  A
Co2219     O2223   1.997   1_645  S
Co2221     O2223   2.017       .  S
C2224      C2421   1.484       .  S
C2225      C2453   1.495       .  S
C2226      C2398   1.498       .  S
C2227      C2293   1.494       .  S
O2228      C2236   1.276       .  A
O2228     Co2248   2.017       .  S
O2229      C2237   1.265       .  A
O2229     Co2249   2.004       .  S
O2230      C2238   1.267       .  A
O2230     Co2250   1.900       .  S
O2231      C2239   1.262       .  A
O2231     Co2251   1.960       .  S
O2232      C2238   1.298       .  A
O2232     Co2249   2.119       .  S
O2233      C2239   1.276       .  A
O2233     Co2248   2.041       .  S
O2234      C2237   1.263       .  A
O2234     Co2251   1.982       .  S
O2235      C2236   1.274       .  A
O2235     Co2250   1.978       .  S
C2236      C2389   1.489       .  S
C2237      C2302   1.494       .  S
C2238      C2462   1.501       .  S
C2239      C2430   1.500       .  S
O2240      C2253   1.263       .  A
O2240     Co2248   1.971       .  S
O2241      C2254   1.266       .  A
O2241     Co2249   1.897       .  S
O2242      C2255   1.263       .  A
O2242     Co2250   1.995       .  S
O2243      C2256   1.277       .  A
O2243     Co2251   2.011       .  S
O2244      C2256   1.270       .  A
O2244     Co2249   1.977       .  S
O2245      C2255   1.265       .  A
O2245     Co2248   1.987       .  S
O2246      C2253   1.276       .  A
O2246     Co2251   2.037       .  S
O2247      C2254   1.299       .  A
O2247     Co2250   2.122       .  S
Co2248     O2252   2.030       .  S
Co2249     O2252   2.000       .  S
Co2250     O2252   1.998       .  S
Co2251     O2252   2.025       .  S
C2253      C2366   1.491       .  S
C2254      C2334   1.500       .  S
C2255      C2494   1.492       .  S
C2256      C2261   1.496       .  S
C2257      C2258   1.402       .  A
C2257      C2262   1.408       .  A
C2257      H2267   1.084       .  S
C2258      C2263   1.483       .  S
C2258      C2259   1.406       .  A
C2259      C2260   1.401       .  A
C2259      C2264   1.507       .  S
C2260      C2261   1.412       .  A
C2260      H2265   1.083       .  S
C2261      C2262   1.421       .  A
C2262      C2266   1.507       .  S
C2263      C2268   1.409       .  A
C2263      C2272   1.399       .  A
C2264      H2280   1.110       .  S
C2264      H2281   1.110       .  S
C2264      H2282   1.111       .  S
C2266      H2277   1.107       .  S
C2266      H2278   1.111       .  S
C2266      H2279   1.110       .  S
C2268      C2269   1.403       .  A
C2268      C2273   1.507       .  S
C2269      C2270   1.406       .  A
C2269      H2274   1.083       .  S
C2270      C2271   1.422       .  A
C2271      C2272   1.407       .  A
C2271      C2275   1.507       .  S
C2272      H2276   1.085       .  S
C2273      H2283   1.111       .  S
C2273      H2284   1.110       .  S
C2273      H2285   1.110       .  S
C2275      H2286   1.109       .  S
C2275      H2287   1.106       .  S
C2275      H2288   1.111       .  S
C2289      C2290   1.398       .  A
C2289      C2294   1.403       .  A
C2289      H2299   1.084       .  S
C2290      C2295   1.481       .  S
C2290      C2291   1.408       .  A
C2291      C2292   1.405       .  A
C2291      C2296   1.507       .  S
C2292      C2293   1.410       .  A
C2292      H2297   1.084       .  S
C2293      C2294   1.425       .  A
C2294      C2298   1.510       .  S
C2295      C2300   1.410       .  A
C2295      C2304   1.399       .  A
C2296      H2312   1.110       .  S
C2296      H2313   1.109       .  S
C2296      H2314   1.111       .  S
C2298      H2309   1.110       .  S
C2298      H2310   1.111       .  S
C2298      H2311   1.110       .  S
C2300      C2301   1.402       .  A
C2300      C2305   1.509       .  S
C2301      C2302   1.409       .  A
C2301      H2306   1.084       .  S
C2302      C2303   1.423       .  A
C2303      C2304   1.407       .  A
C2303      C2307   1.508       .  S
C2304      H2308   1.084       .  S
C2305      H2315   1.111       .  S
C2305      H2316   1.110       .  S
C2305      H2317   1.109       .  S
C2307      H2318   1.110       .  S
C2307      H2319   1.108       .  S
C2307      H2320   1.111       .  S
C2321      C2322   1.401       .  A
C2321      C2326   1.405       .  A
C2321      H2331   1.085       .  S
C2322      C2327   1.487       .  S
C2322      C2323   1.411       .  A
C2323      C2324   1.407       .  A
C2323      C2328   1.505       .  S
C2324      C2325   1.407       .  A
C2324      H2329   1.083       .  S
C2325      C2326   1.419       .  A
C2326      C2330   1.508       .  S
C2327      C2332   1.408       .  A
C2327      C2336   1.401       .  A
C2328      H2344   1.110       .  S
C2328      H2345   1.110       .  S
C2328      H2346   1.109       .  S
C2330      H2341   1.111       .  S
C2330      H2342   1.110       .  S
C2330      H2343   1.107       .  S
C2332      C2333   1.405       .  A
C2332      C2337   1.506       .  S
C2333      C2334   1.411       .  A
C2333      H2338   1.081       .  S
C2334      C2335   1.424       .  A
C2335      C2336   1.409       .  A
C2335      C2339   1.507       .  S
C2336      H2340   1.084       .  S
C2337      H2347   1.111       .  S
C2337      H2348   1.110       .  S
C2337      H2349   1.110       .  S
C2339      H2350   1.110       .  S
C2339      H2351   1.107       .  S
C2339      H2352   1.111       .  S
C2353      C2354   1.402       .  A
C2353      C2358   1.409       .  A
C2353      H2363   1.084       .  S
C2354      C2359   1.491       .  S
C2354      C2355   1.409       .  A
C2355      C2356   1.407       .  A
C2355      C2360   1.507       .  S
C2356      C2357   1.413       .  A
C2356      H2361   1.084       .  S
C2357      C2358   1.423       .  A
C2358      C2362   1.508       .  S
C2359      C2364   1.411       .  A
C2359      C2368   1.403       .  A
C2360      H2376   1.110       .  S
C2360      H2377   1.109       .  S
C2360      H2378   1.111       .  S
C2362      H2373   1.111       .  S
C2362      H2374   1.109       .  S
C2362      H2375   1.110       .  S
C2364      C2365   1.407       .  A
C2364      C2369   1.506       .  S
C2365      C2366   1.407       .  A
C2365      H2370   1.083       .  S
C2366      C2367   1.418       .  A
C2367      C2368   1.409       .  A
C2367      C2371   1.508       .  S
C2368      H2372   1.084       .  S
C2369      H2379   1.111       .  S
C2369      H2380   1.110       .  S
C2369      H2381   1.109       .  S
C2371      H2382   1.111       .  S
C2371      H2383   1.108       .  S
C2371      H2384   1.110       .  S
C2385      C2386   1.399       .  A
C2385      C2390   1.405       .  A
C2385      H2395   1.085       .  S
C2386      C2391   1.485       .  S
C2386      C2387   1.411       .  A
C2387      C2388   1.404       .  A
C2387      C2392   1.506       .  S
C2388      C2389   1.405       .  A
C2388      H2393   1.083       .  S
C2389      C2390   1.421       .  A
C2390      C2394   1.506       .  S
C2391      C2396   1.407       .  A
C2391      C2400   1.402       .  A
C2392      H2408   1.109       .  S
C2392      H2409   1.110       .  S
C2392      H2410   1.111       .  S
C2394      H2405   1.111       .  S
C2394      H2406   1.109       .  S
C2394      H2407   1.108       .  S
C2396      C2397   1.401       .  A
C2396      C2401   1.508       .  S
C2397      C2398   1.413       .  A
C2397      H2402   1.083       .  S
C2398      C2399   1.421       .  A
C2399      C2400   1.408       .  A
C2399      C2403   1.507       .  S
C2400      H2404   1.084       .  S
C2401      H2411   1.111       .  S
C2401      H2412   1.109       .  S
C2401      H2413   1.110       .  S
C2403      H2414   1.111       .  S
C2403      H2415   1.110       .  S
C2403      H2416   1.109       .  S
C2417      C2418   1.398       .  A
C2417      C2422   1.404       .  A
C2417      H2427   1.084       .  S
C2418      C2423   1.481       .  S
C2418      C2419   1.411       .  A
C2419      C2420   1.404       .  A
C2419      C2424   1.506       .  S
C2420      C2421   1.405       .  A
C2420      H2425   1.083       .  S
C2421      C2422   1.421       .  A
C2422      C2426   1.508       .  S
C2423      C2428   1.406       .  A
C2423      C2432   1.399       .  A
C2424      H2440   1.110       .  S
C2424      H2441   1.110       .  S
C2424      H2442   1.111       .  S
C2426      H2437   1.111       .  S
C2426      H2438   1.109       .  S
C2426      H2439   1.109       .  S
C2428      C2429   1.402       .  A
C2428      C2433   1.508       .  S
C2429      C2430   1.412       .  A
C2429      H2434   1.084       .  S
C2430      C2431   1.425       .  A
C2431      C2432   1.408       .  A
C2431      C2435   1.508       .  S
C2432      H2436   1.084       .  S
C2433      H2443   1.111       .  S
C2433      H2444   1.110       .  S
C2433      H2445   1.110       .  S
C2435      H2446   1.111       .  S
C2435      H2447   1.108       .  S
C2435      H2448   1.106       .  S
C2449      C2450   1.401       .  A
C2449      C2454   1.408       .  A
C2449      H2459   1.084       .  S
C2450      C2455   1.490       .  S
C2450      C2451   1.411       .  A
C2451      C2452   1.408       .  A
C2451      C2456   1.506       .  S
C2452      C2453   1.408       .  A
C2452      H2457   1.083       .  S
C2453      C2454   1.421       .  A
C2454      C2458   1.508       .  S
C2455      C2460   1.409       .  A
C2455      C2464   1.402       .  A
C2456      H2472   1.110       .  S
C2456      H2473   1.109       .  S
C2456      H2474   1.110       .  S
C2458      H2469   1.111       .  S
C2458      H2470   1.109       .  S
C2458      H2471   1.110       .  S
C2460      C2461   1.406       .  A
C2460      C2465   1.507       .  S
C2461      C2462   1.411       .  A
C2461      H2466   1.082       .  S
C2462      C2463   1.423       .  A
C2463      C2464   1.409       .  A
C2463      C2467   1.507       .  S
C2464      H2468   1.085       .  S
C2465      H2475   1.111       .  S
C2465      H2476   1.110       .  S
C2465      H2477   1.109       .  S
C2467      H2478   1.110       .  S
C2467      H2479   1.109       .  S
C2467      H2480   1.111       .  S
C2481      C2482   1.397       .  A
C2481      C2486   1.401       .  A
C2481      H2491   1.085       .  S
C2482      C2487   1.477       .  S
C2482      C2483   1.407       .  A
C2483      C2484   1.405       .  A
C2483      C2488   1.505       .  S
C2484      C2485   1.410       .  A
C2484      H2489   1.084       .  S
C2485      C2486   1.424       .  A
C2486      C2490   1.510       .  S
C2487      C2492   1.408       .  A
C2487      C2496   1.397       .  A
C2488      H2504   1.110       .  S
C2488      H2505   1.110       .  S
C2488      H2506   1.111       .  S
C2490      H2501   1.110       .  S
C2490      H2502   1.111       .  S
C2490      H2503   1.110       .  S
C2492      C2493   1.402       .  A
C2492      C2497   1.508       .  S
C2493      C2494   1.409       .  A
C2493      H2498   1.083       .  S
C2494      C2495   1.425       .  A
C2495      C2496   1.405       .  A
C2495      C2499   1.509       .  S
C2496      H2500   1.084       .  S
C2497      H2507   1.111       .  S
C2497      H2508   1.110       .  S
C2497      H2509   1.110       .  S
C2499      H2510   1.110       .  S
C2499      H2511   1.108       .  S
C2499      H2512   1.111       .  S
