geometry optimzed in LAMMPS
_audit_creation_date              2020-11-30 
_audit_creation_method            'lammps2cif' 
_symmetry_space_group_name_H-M    'P1' 
_symmetry_Int_Tables_number       1 
_symmetry_cell_setting            triclinic 
loop_ 
_symmetry_equiv_pos_as_xyz 
  x,y,z 
_cell_length_a                    46.04267949 
_cell_length_b                    36.27753886659892 
_cell_length_c                    41.07428656937379 
_cell_angle_alpha                 90.46391986828397 
_cell_angle_beta                  89.98178001591913 
_cell_angle_gamma                 90.46572274602607 
loop_ 
_atom_site_label 
_atom_site_type_symbol 
_atom_site_fract_x 
_atom_site_fract_y 
_atom_site_fract_z 
_atom_site_charge 
C1          C  0.03294552  0.10026268  0.09072083     0.81000
N2          N  0.04354176  0.10441505  0.05987672    -0.77300
C3          C  0.03559688  0.08062936  0.03563644     0.83500
N4          N  0.01677203  0.05272728  0.04229589    -0.77200
C5          C  0.00577371  0.04798634  0.07264955     0.83600
N6          N  0.01457132  0.07125688  0.09723595    -0.78900
O7          O  0.96992688  0.43787992  0.00607801    -0.77700
C8          C  0.88129033  0.44765975  0.03058626     0.83400
O9          O  0.99123704  0.49666788  0.10304818    -0.78800
O10         O  0.89101816  0.45330914  0.12038044    -0.80300
O11         O  0.92939290  0.34087060  0.06687812    -0.80100
O12         O  0.98554079  0.38251984  0.02188864    -0.78700
Zn13       Zn  0.94662065  0.46167937  0.04230723     1.55700
O14         O  0.90458984  0.36477823  0.10763831    -0.80100
Cd15       Cd  0.96437146  0.37931228  0.06814470     1.59700
Cd16       Cd  0.96363394  0.45325442  0.11825162     1.59600
O17         O  0.98962013  0.36347944  0.10862948    -0.80100
O18         O  0.94807805  0.42887540  0.07843367    -1.90600
Cd19       Cd  0.90828774  0.41633060  0.08952808     1.59900
O20         O  0.98244087  0.40890955  0.14542957    -0.80000
O21         O  0.88249939  0.42026116  0.04961056    -0.78700
C22         C  0.98865942  0.51652213  0.07748678     0.83800
C23         C  0.98440842  0.40853322  0.00086363     0.83500
O24         O  0.90321933  0.46950202  0.02711405    -0.77700
C25         C  0.90877275  0.33852610  0.08778323     0.84300
O26         O  0.97064603  0.50802425  0.05470080    -0.77700
C27         C  0.99163370  0.37641122  0.13776878     0.84400
C28         C  0.90152900  0.47888942  0.13792526     0.84800
O29         O  0.92908880  0.48193685  0.14146334    -0.80200
C30         C  0.77890417  0.22717710  0.02001358     0.81000
N31         N  0.79563221  0.23663225  0.04639227    -0.77300
C32         C  0.82517843  0.23836897  0.04336344     0.83500
N33         N  0.83344211  0.23602130  0.51164530    -0.77200
C34         C  0.81727254  0.22724690  0.48537886     0.83600
N35         N  0.78802744  0.22500276  0.48833061    -0.78900
C36         C  0.00318425  0.35172311  0.16382631     0.81000
N37         N  0.02085039  0.32241664  0.15631398    -0.77300
C38         C  0.02944601  0.29871391  0.18022685     0.83500
N39         N  0.01921921  0.30353278  0.21082783    -0.77200
C40         C  0.00120770  0.33147217  0.21856952     0.83600
N41         N  0.99313661  0.35564483  0.19505002    -0.78900
O42         O  0.06759324  0.18796760  0.24843229    -0.77700
C43         C  0.15359952  0.20029225  0.22307764     0.83400
O44         O  0.04666609  0.24676818  0.14864420    -0.78800
O45         O  0.14606266  0.20545775  0.13613234    -0.80300
O46         O  0.10979865  0.09063730  0.18610445    -0.80100
O47         O  0.05430439  0.13052208  0.23433752    -0.78700
Zn48       Zn  0.08930029  0.21206232  0.21119113     1.55700
O49         O  0.13456820  0.11641943  0.14625475    -0.80100
Cd50       Cd  0.07369972  0.12765023  0.18641329     1.59700
Cd51       Cd  0.07342266  0.20191677  0.13527317     1.59600
O52         O  0.04748822  0.11141281  0.14604777    -0.80100
O53         O  0.08818565  0.17822890  0.17544635    -1.90600
Cd54       Cd  0.12815966  0.16744810  0.16511332     1.59900
O55         O  0.05366846  0.15718651  0.10964089    -0.80000
O56         O  0.15157238  0.17108164  0.20609357    -0.78700
C57         C  0.04862387  0.26641607  0.17466475     0.83800
C58         C  0.05490929  0.15745866  0.25498736     0.83500
O59         O  0.13219952  0.22262193  0.22527311    -0.77700
C60         C  0.13094591  0.08991038  0.16569875     0.84300
O61         O  0.06538614  0.25730848  0.19818904    -0.77700
C62         C  0.04472221  0.12457539  0.11719346     0.84400
C63         C  0.13573662  0.22727471  0.11541446     0.84800
O64         O  0.10833675  0.22768232  0.11006226    -0.80200
C65         C  0.25803637  0.97603622  0.23621126     0.81000
N66         N  0.24392971  0.98767243  0.20863109    -0.77300
C67         C  0.21413749  0.98895143  0.20823400     0.83500
N68         N  0.19947707  0.97987802  0.23545949    -0.77200
C69         C  0.21298051  0.96971473  0.26283581     0.83600
N70         N  0.24232641  0.96832451  0.26338535    -0.78900
C71         C  0.03586412  0.13616333  0.34187898     0.81000
N72         N  0.01857650  0.16587769  0.34892721    -0.77300
C73         C  0.01099565  0.18986346  0.32492064     0.83500
N74         N  0.02183325  0.18470332  0.29444913    -0.77200
C75         C  0.03940887  0.15606210  0.28691634     0.83600
N76         N  0.04639104  0.13164793  0.31076968    -0.78900
O77         O  0.90962536  0.25524387  0.28016668    -0.77700
C78         C  0.98584267  0.32894108  0.24993746     0.83400
O79         O  0.98886823  0.23883064  0.35742848    -0.78800
O80         O  0.98894331  0.37553325  0.35954893    -0.80300
O81         O  0.90000482  0.37453500  0.34125407    -0.80100
O82         O  0.88711403  0.30816017  0.28833862    -0.78700
Zn83       Zn  0.95085681  0.27424223  0.29189375     1.55700
O84         O  0.93310410  0.39507772  0.30682975    -0.80100
Cd85       Cd  0.90826247  0.32086307  0.33045286     1.59700
Cd86       Cd  0.96199618  0.28556010  0.36869275     1.59600
O87         O  0.88912824  0.28949991  0.36402440    -0.80100
O88         O  0.94932391  0.30878850  0.32707532    -1.90600
Cd89       Cd  0.96680206  0.35786024  0.31691803     1.59900
O90         O  0.92463748  0.26717308  0.39430719    -0.80000
O91         O  0.98945886  0.35336761  0.27235083    -0.78700
C92         C  0.99107833  0.22172966  0.32998395     0.83800
C93         C  0.88682454  0.27499478  0.27846668     0.83500
O94         O  0.97051335  0.29986014  0.25427764    -0.77700
C95         C  0.90830937  0.39791736  0.32053085     0.84300
O96         O  0.97716433  0.23243527  0.30492913    -0.77700
C97         C  0.89753453  0.27108177  0.38818579     0.84400
C98         C  0.99071002  0.36216307  0.38839103     0.84800
O99         O  0.98183026  0.32939570  0.39520495    -0.80200
C100        C  0.77604181  0.51206927  0.24672786     0.81000
N101        N  0.79156650  0.49268836  0.26920884    -0.77300
C102        C  0.82112380  0.49358616  0.26863972     0.83500
N103        N  0.83484661  0.51315502  0.24560979    -0.77200
C104        C  0.82033075  0.53115082  0.22227119     0.83600
N105        N  0.79071047  0.53022823  0.22260211    -0.78900
C106        C  0.00162595  0.38632600  0.41534464     0.81000
N107        N  0.99054513  0.38222514  0.44606772    -0.77300
C108        C  0.99811130  0.40621426  0.47041324     0.83500
N109        N  0.01702374  0.43414344  0.46380496    -0.77200
C110        C  0.02845177  0.43865247  0.43353895     0.83600
N111        N  0.02009107  0.41519310  0.40905750    -0.78900
O112        O  0.13488903  0.51327183  0.47809789    -0.77700
C113        C  0.05276631  0.07684816  0.50422172     0.83400
O114        O  0.04685030  0.48947446  0.40192266    -0.78800
O115        O  0.05022312  0.12502518  0.39708214    -0.80300
O116        O  0.13583456  0.11846036  0.40204446    -0.80100
O117        O  0.15599389  0.05959606  0.45780940    -0.78700
Zn118      Zn  0.09030469  0.02318379  0.46354767     1.55700
O119        O  0.11006682  0.14430379  0.44122556    -0.80100
Cd120      Cd  0.12988211  0.06677805  0.41871942     1.59700
Cd121      Cd  0.07266133  0.03407579  0.38729474     1.59600
O122        O  0.14510728  0.03245707  0.38496995    -0.80100
O123        O  0.08949381  0.05665964  0.42765975    -1.90600
Cd124      Cd  0.07432867  0.10703131  0.43798711     1.59900
O125        O  0.10602624  0.01354663  0.35749097    -0.80000
O126        O  0.05219684  0.10312193  0.48342169    -0.78700
C127        C  0.04862272  0.47027160  0.42799871     0.83800
C128        C  0.15743087  0.53407814  0.47466977     0.83500
O129        O  0.06713682  0.04737599  0.49928672    -0.77700
C130        C  0.13169648  0.14496956  0.42159263     0.84300
O131        O  0.06635101  0.47883049  0.45098503    -0.77700
C132        C  0.13353508  0.01570497  0.36113555     0.84400
C133        C  0.04636250  0.11142948  0.36839398     0.84800
O134        O  0.05308554  0.07796601  0.36135371    -0.80200
C135        C  0.25828563  0.25743010  0.49110284     0.81000
N136        N  0.24344495  0.27195791  0.01861484    -0.77300
C137        C  0.21396344  0.27315308  0.01929159     0.83500
N138        N  0.19901365  0.26254065  0.99244793    -0.77200
C139        C  0.21413635  0.24767370  0.46277283     0.83600
N140        N  0.24370901  0.24631741  0.46376829    -0.78900
C141        C  0.50154875  0.34380087  0.08967066     0.81000
N142        N  0.49177314  0.34673334  0.05833798    -0.77300
C143        C  0.50011457  0.32196667  0.03503615     0.83500
N144        N  0.51834143  0.29441059  0.04317250    -0.77200
C145        C  0.52843546  0.29067489  0.07395898     0.83600
N146        N  0.51941920  0.31496773  0.09756342    -0.78900
O147        O  0.63336033  0.21756618  0.03341754    -0.77700
C148        C  0.55320247  0.15090744  0.00322229     0.83400
O149        O  0.54633329  0.24050813  0.10681566    -0.78800
O150        O  0.54677839  0.10677699  0.11268206    -0.80300
O151        O  0.63675491  0.10130711  0.09682808    -0.80100
O152        O  0.65740105  0.17645776  0.06291705    -0.78700
Zn153      Zn  0.59050682  0.20432087  0.04584282     1.55700
O154        O  0.60210119  0.08360900  0.06261960    -0.80100
Cd155      Cd  0.62868665  0.15625376  0.09562368     1.59700
Cd156      Cd  0.57343292  0.19636609  0.12129270     1.59600
O157        O  0.64202187  0.17929930  0.13805473    -0.80100
O158        O  0.58938293  0.17098706  0.08210574    -1.90600
Cd159      Cd  0.57005773  0.12315763  0.07100120     1.59900
O160        O  0.60881246  0.22224551  0.14515164    -0.80000
O161        O  0.54837537  0.12743003  0.02579838    -0.78700
C162        C  0.54804349  0.25893110  0.08033546     0.83800
C163        C  0.65699057  0.20170220  0.04174982     0.83500
O164        O  0.56968756  0.17904889  0.00772964    -0.77700
C165        C  0.62676618  0.07863442  0.07602400     0.84300
O166        O  0.56518139  0.24915381  0.05725256    -0.77700
C167        C  0.63443017  0.21010409  0.14985478     0.84400
C168        C  0.54538691  0.11996579  0.14176472     0.84800
O169        O  0.55452070  0.15270927  0.14900684    -0.80200
C170        C  0.75451874  0.95441331  0.00396655     0.81000
N171        N  0.73897891  0.97500934  0.02587319    -0.77300
C172        C  0.70942133  0.97415159  0.02524486     0.83500
N173        N  0.69695654  0.95632960  0.49786159    -0.77200
C174        C  0.71189716  0.93711098  0.47540978     0.83600
N175        N  0.74147736  0.93737649  0.47697382    -0.78900
C176        C  0.53460739  0.09520392  0.16810165     0.81000
N177        N  0.54572674  0.09859662  0.19896315    -0.77300
C178        C  0.53851105  0.07357557  0.22231962     0.83500
N179        N  0.52014211  0.04538185  0.21457458    -0.77200
C180        C  0.50890101  0.04132257  0.18420546     0.83600
N181        N  0.51670650  0.06590205  0.16070045    -0.78900
O182        O  0.40364241  0.46934481  0.22560344    -0.77700
C183        C  0.48006241  0.39835202  0.25300213     0.83400
O184        O  0.49073519  0.48970193  0.15163474    -0.78800
O185        O  0.48568605  0.35557241  0.14421182    -0.80300
O186        O  0.39718551  0.36383379  0.14674784    -0.80100
O187        O  0.38159257  0.41941755  0.20602195    -0.78700
Zn188      Zn  0.44606497  0.45528977  0.21212316     1.55700
O189        O  0.42334126  0.33687490  0.18485143    -0.80100
Cd190      Cd  0.40536897  0.41493237  0.16492686     1.59700
Cd191      Cd  0.46252182  0.44679700  0.13545262     1.59600
O192        O  0.38967354  0.45514065  0.13620648    -0.80100
O193        O  0.44608604  0.42311729  0.17498419    -1.90600
Cd194      Cd  0.46008264  0.37235412  0.18435698     1.59900
O195        O  0.42886685  0.47645073  0.11161623    -0.80000
O196        O  0.48055079  0.37289198  0.23107901    -0.78700
C197        C  0.48931499  0.50838031  0.17829012     0.83800
C198        C  0.38088904  0.44897089  0.22264469     0.83500
O199        O  0.46701042  0.42883865  0.24843586    -0.77700
C200        C  0.40127190  0.33708861  0.16583229     0.84300
O201        O  0.47196749  0.49934402  0.20130588    -0.77700
C202        C  0.40142263  0.47778325  0.11685638     0.84400
C203        C  0.48937679  0.36876632  0.11556380     0.84800
O204        O  0.48135196  0.40175775  0.10818750    -0.80200
C205        C  0.27607137  0.22051186  0.24115076     0.81000
N206        N  0.28985799  0.23461394  0.21448084    -0.77300
C207        C  0.31948107  0.23570673  0.21335779     0.83500
N208        N  0.33472411  0.22372829  0.23935408    -0.77200
C209        C  0.32136844  0.21020472  0.26607384     0.83600
N210        N  0.29197314  0.20871488  0.26682957    -0.78900
C211        C  0.53592226  0.12441965  0.41678605     0.81000
N212        N  0.51805207  0.15329846  0.40898139    -0.77300
C213        C  0.50885284  0.17740166  0.43265146     0.83500
N214        N  0.51871755  0.17338024  0.46349955    -0.77200
C215        C  0.53694182  0.14582885  0.47164934     0.83600
N216        N  0.54554968  0.12127245  0.44822351    -0.78900
O217        O  0.46774167  0.28874397  0.49821702    -0.77700
C218        C  0.38032964  0.26861518  0.46901480     0.83400
O219        O  0.49132004  0.22824672  0.40029624    -0.78800
O220        O  0.39329036  0.28355285  0.37234699    -0.80300
O221        O  0.43292117  0.38461527  0.44199887    -0.80100
O222        O  0.48685162  0.34214005  0.48113296    -0.78700
Zn223      Zn  0.44635825  0.26338091  0.46091287     1.55700
O224        O  0.39875736  0.36555728  0.40785541    -0.80100
Cd225      Cd  0.46571477  0.34554117  0.43525549     1.59700
Cd226      Cd  0.46375001  0.27192468  0.38576024     1.59600
O227        O  0.48922977  0.36181335  0.39353865    -0.80100
O228        O  0.44711054  0.29705011  0.42477089    -1.90600
Cd229      Cd  0.40732615  0.31076248  0.41227835     1.59900
O230        O  0.48188714  0.31558574  0.35745566    -0.80000
O231        O  0.37970250  0.29353459  0.44753368    -0.78700
C232        C  0.48916961  0.20915231  0.42637585     0.83800
C233        C  0.48311456  0.31773132  0.50323371     0.83500
O234        O  0.40373980  0.25128283  0.47568233    -0.77700
C235        C  0.40821283  0.38889743  0.42842628     0.84300
O236        O  0.47153012  0.21828875  0.44920942    -0.77700
C237        C  0.49068128  0.34852154  0.36448842     0.84400
C238        C  0.40262271  0.25430122  0.35911984     0.84800
O239        O  0.42913406  0.24483855  0.36209323    -0.80200
C240        C  0.28065483  0.51555156  0.50131235     0.81000
N241        N  0.29638811  0.53575198  0.02578819    -0.77300
C242        C  0.32591095  0.53393597  0.02710850     0.83500
N243        N  0.33975210  0.51350309  0.00468610    -0.77200
C244        C  0.32533595  0.49305073  0.48082118     0.83600
N245        N  0.29572113  0.49395407  0.47960849    -0.78900
C246        C  0.50115952  0.37329548  0.33795313     0.81000
N247        N  0.51946895  0.40227846  0.34505181    -0.77300
C248        C  0.52715732  0.42677896  0.32143108     0.83500
N249        N  0.51538211  0.42309068  0.29131595    -0.77200
C250        C  0.49657438  0.39529752  0.28389329     0.83600
N251        N  0.48950894  0.37022586  0.30730191    -0.78900
O252        O  0.56737768  0.03962442  0.25789972    -0.77700
C253        C  0.65438412  0.52231638  0.27811854     0.83400
O254        O  0.54590143  0.47738166  0.35391199    -0.78800
O255        O  0.64721466  0.01169357  0.36668949    -0.80300
O256        O  0.61394052  0.13149332  0.32205311    -0.80100
O257        O  0.55593072  0.09654646  0.27462743    -0.78700
Zn258      Zn  0.58985365  0.01327315  0.29260374     1.55700
O259        O  0.63878082  0.10268977  0.36021741    -0.80100
Cd260      Cd  0.57673137  0.09646355  0.32144790     1.59700
Cd261      Cd  0.57441721  0.02136086  0.36968492     1.59600
O262        O  0.55142918  0.11287063  0.36201464    -0.80100
O263        O  0.59034280  0.04518237  0.32999150    -1.90600
Cd264      Cd  0.63112992  0.05282002  0.33940612     1.59900
O265        O  0.55601490  0.06639646  0.39768983    -0.80000
O266        O  0.65412123  0.05106119  0.29739443    -0.78700
C267        C  0.54732481  0.45834660  0.32742654     0.83800
C268        C  0.55509541  0.07052610  0.25317497     0.83500
O269        O  0.63202834  0.50112198  0.27541906    -0.77700
C270        C  0.63566362  0.12996328  0.34153253     0.84300
O271        O  0.56472143  0.46705324  0.30427939    -0.77700
C272        C  0.54800146  0.09951086  0.39065936     0.84400
C273        C  0.63567785  0.98948719  0.38658085     0.84800
O274        O  0.60840397  0.99144958  0.39275621    -0.80200
C275        C  0.76318258  0.24761984  0.26890961     0.81000
N276        N  0.74717736  0.25765532  0.24246135    -0.77300
C277        C  0.71769218  0.25463921  0.24249582     0.83500
N278        N  0.70426371  0.24065047  0.26882661    -0.77200
C279        C  0.71935861  0.22991691  0.29508604     0.83600
N280        N  0.74879968  0.23314470  0.29501473    -0.78900
C281        C  0.65980179  0.15721038  0.33928526    -0.04500
C282        C  0.68834971  0.14466101  0.33284434    -0.01600
C283        C  0.70968760  0.16938664  0.32140189     0.03400
C284        C  0.70334802  0.20726111  0.31900527    -0.04500
C285        C  0.67656596  0.22041070  0.33108389    -0.01600
C286        C  0.65446994  0.19536969  0.34021116     0.03300
C287        C  0.69557922  0.10595088  0.33575537     0.38000
C288        C  0.67136047  0.25975519  0.33244999     0.38000
C289        C  0.62625245  0.20876377  0.35024382     0.36400
C290        C  0.73660714  0.15486472  0.30828950     0.36400
N291        N  0.60375764  0.21947560  0.35836712    -0.38400
N292        N  0.75775437  0.14274180  0.29754618    -0.38400
N293        N  0.66737044  0.29117922  0.33384863    -0.37900
N294        N  0.70197408  0.07534329  0.33842599    -0.37900
C295        C  0.38800454  0.41806756  0.44028992    -0.04500
C296        C  0.38517084  0.42351458  0.47424311    -0.01600
C297        C  0.36162519  0.44338901  0.48678568     0.03400
C298        C  0.34304581  0.46324887  0.46584146    -0.04500
C299        C  0.34615339  0.45901645  0.43191311    -0.01600
C300        C  0.36797982  0.43551911  0.41913300     0.03300
C301        C  0.40607001  0.40815255  0.49684072     0.38000
C302        C  0.32726379  0.47917418  0.41032254     0.38000
C303        C  0.37043102  0.43047704  0.38419894     0.36400
C304        C  0.35457308  0.44125132  0.02361908     0.36400
N305        N  0.37228157  0.42648116  0.35629084    -0.38400
N306        N  0.34955960  0.43994326  0.05119824    -0.38400
N307        N  0.31212419  0.49528648  0.39313626    -0.37900
N308        N  0.42167338  0.39539627  0.01794459    -0.37900
C309        C  0.38114675  0.23144108  0.34048161    -0.04500
C310        C  0.38949428  0.20812951  0.31442356    -0.01600
C311        C  0.36813792  0.19419549  0.29292406     0.03400
C312        C  0.33904277  0.20567140  0.29595428    -0.04500
C313        C  0.33004640  0.22213832  0.32543750    -0.01600
C314        C  0.35104568  0.23425368  0.34803578     0.03300
C315        C  0.41976845  0.19963926  0.30858062     0.38000
C316        C  0.29953148  0.22893791  0.33191666     0.38000
C317        C  0.34126383  0.25034623  0.37861316     0.36400
C318        C  0.37584789  0.16773101  0.26785831     0.36400
N319        N  0.33296974  0.26319446  0.40272624    -0.38400
N320        N  0.38206880  0.14563844  0.24868369    -0.38400
N321        N  0.27526146  0.23442057  0.33731086    -0.37900
N322        N  0.44389299  0.19267062  0.30381446    -0.37900
C323        C  0.38197481  0.50530266  0.10004613    -0.04500
C324        C  0.35159054  0.50713218  0.10738595    -0.01600
C325        C  0.33242575  0.52600344  0.08659063     0.03400
C326        C  0.34290115  0.54112935  0.05743515    -0.04500
C327        C  0.37321156  0.54700667  0.05440070    -0.01600
C328        C  0.39275466  0.52934778  0.07569256     0.03300
C329        C  0.33898148  0.48803047  0.13493333     0.38000
C330        C  0.38424676  0.56796835  0.02704816     0.38000
C331        C  0.42370016  0.53542466  0.07162241     0.36400
C332        C  0.30146863  0.52607807  0.09331198     0.36400
N333        N  0.44837453  0.54064894  0.06848983    -0.38400
N334        N  0.27673539  0.52606768  0.09832522    -0.38400
N335        N  0.39312257  0.58444436  0.00512641    -0.37900
N336        N  0.32817866  0.47251736  0.15630583    -0.37900
C337        C  0.37852612  0.30777045  0.16809883    -0.04500
C338        C  0.34859263  0.31715363  0.16832165    -0.01600
C339        C  0.32743740  0.29067374  0.17720852     0.03400
C340        C  0.33617717  0.25555145  0.18761698    -0.04500
C341        C  0.36496365  0.24441877  0.18101182    -0.01600
C342        C  0.38628359  0.27059315  0.17217924     0.03300
C343        C  0.33940520  0.35463283  0.16210321     0.38000
C344        C  0.37241584  0.20578467  0.18279072     0.38000
C345        C  0.41620760  0.25935525  0.16786625     0.36400
C346        C  0.29690884  0.29975467  0.17544859     0.36400
N347        N  0.44010590  0.25045134  0.16447638    -0.38400
N348        N  0.27264052  0.30715980  0.17273931    -0.38400
N349        N  0.37840440  0.17488966  0.18316572    -0.37900
N350        N  0.33186535  0.38444591  0.15726180    -0.37900
C351        C  0.69526400  0.92765326  0.44530531    -0.04500
C352        C  0.66514163  0.92079671  0.44873032    -0.01600
C353        C  0.64505255  0.93864790  0.42825188     0.03400
C354        C  0.65526870  0.96193720  0.40304926    -0.04500
C355        C  0.68537645  0.95943337  0.39455410    -0.01600
C356        C  0.70514313  0.94189396  0.41558182     0.03300
C357        C  0.65448552  0.40061065  0.47892628     0.38000
C358        C  0.69686371  0.97572416  0.36504682     0.38000
C359        C  0.73588918  0.94108640  0.40783854     0.36400
C360        C  0.61384539  0.43499819  0.43682264     0.36400
N361        N  0.76038830  0.94028271  0.40156647    -0.38400
N362        N  0.58924946  0.43092135  0.44156362    -0.38400
N363        N  0.70662379  0.98870424  0.34180600    -0.37900
N364        N  0.64629574  0.38298461  0.50047346    -0.37900
C365        C  0.69988495  0.25757413  0.21251754    -0.04500
C366        C  0.70817609  0.23822339  0.18417684    -0.01600
C367        C  0.68682517  0.22621759  0.16186016     0.03400
C368        C  0.65679531  0.23155410  0.16870286    -0.04500
C369        C  0.64916024  0.25593400  0.19428043    -0.01600
C370        C  0.67087829  0.26978069  0.21545415     0.03300
C371        C  0.73816961  0.22742856  0.17919145     0.38000
C372        C  0.61904244  0.26513181  0.20033986     0.38000
C373        C  0.66321716  0.29521693  0.24144890     0.36400
C374        C  0.69622401  0.20753653  0.13230659     0.36400
N375        N  0.65708206  0.31579490  0.26194545    -0.38400
N376        N  0.70438439  0.19265204  0.10906115    -0.38400
N377        N  0.59504273  0.27256799  0.20532979    -0.37900
N378        N  0.76195283  0.21843569  0.17500868    -0.37900
C379        C  0.64642550  0.04919765  0.06407908    -0.04500
C380        C  0.65127916  0.04603925  0.03022065    -0.01600
C381        C  0.67454718  0.02505395  0.01844015     0.03400
C382        C  0.69136598  0.00352958  0.03991233    -0.04500
C383        C  0.68626227  0.00577775  0.07365399    -0.01600
C384        C  0.66426992  0.02926261  0.08582163     0.03300
C385        C  0.63292926  0.06520249  0.00715965     0.38000
C386        C  0.70323654  0.98354470  0.09564413     0.38000
C387        C  0.65939231  0.03196902  0.12063274     0.36400
C388        C  0.67883989  0.02797396  0.48089799     0.36400
N389        N  0.65550489  0.03412541  0.14842206    -0.38400
N390        N  0.68319090  0.02933247  0.45317782    -0.38400
N391        N  0.71681476  0.96580280  0.11319987    -0.37900
N392        N  0.61482366  0.07963521  0.48891081    -0.37900
C393        C  0.29069175  0.25727106  0.49203791    -0.04500
C394        C  0.30661424  0.22516681  0.48408775    -0.01600
C395        C  0.33716070  0.22718432  0.47984617     0.03400
C396        C  0.35203170  0.26084378  0.48526713    -0.04500
C397        C  0.33652917  0.29097693  0.49833208    -0.01600
C398        C  0.30600826  0.28975787  0.50063413     0.03300
C399        C  0.29176206  0.18993170  0.48128018     0.38000
C400        C  0.35209469  0.32366034  0.50910789     0.38000
C401        C  0.29060526  0.32531968  0.01029081     0.36400
C402        C  0.35300721  0.19523612  0.46845580     0.36400
N403        N  0.27843023  0.35194089  0.01753319    -0.38400
N404        N  0.36565530  0.16967175  0.45943914    -0.38400
N405        N  0.36420224  0.34961010  0.51859970    -0.37900
N406        N  0.28012359  0.16157938  0.47968589    -0.37900
C407        C  0.19669884  0.22893183  0.43683000    -0.04500
C408        C  0.20518458  0.19396758  0.42555569    -0.01600
C409        C  0.18398414  0.16633498  0.42033981     0.03400
C410        C  0.15394425  0.17495529  0.42284302    -0.04500
C411        C  0.14587347  0.21217453  0.42653423    -0.01600
C412        C  0.16739234  0.23921849  0.43278215     0.03300
C413        C  0.23548881  0.18649666  0.41891818     0.38000
C414        C  0.11562389  0.22261729  0.42418971     0.38000
C415        C  0.15974994  0.27782007  0.43434238     0.36400
C416        C  0.19358607  0.12867664  0.41542379     0.36400
N417        N  0.15081350  0.31197324  0.94058959    -0.38400
N418        N  0.20159452  0.09875327  0.41185186    -0.38400
N419        N  0.09148291  0.23096997  0.42225997    -0.37900
N420        N  0.25948184  0.18066142  0.41241573    -0.37900
C421        C  0.24782011  0.51823059  0.49971706    -0.04500
C422        C  0.23027964  0.48771104  0.48972777    -0.01600
C423        C  0.19984082  0.49159156  0.48516442     0.03400
C424        C  0.18641550  0.52612518  0.48983336    -0.04500
C425        C  0.20120970  0.05140784  0.50604166    -0.01600
C426        C  0.23363041  0.55180813  0.50760783     0.03300
C427        C  0.24334691  0.45200697  0.48402654     0.38000
C428        C  0.18750573  0.08614038  0.51448632     0.38000
C429        C  0.24776321  0.07784527  0.52489962     0.36400
C430        C  0.18261991  0.46035654  0.47393593     0.36400
N431        N  0.26057282  0.10239550  0.53616644    -0.38400
N432        N  0.16884878  0.43537077  0.46514446    -0.38400
N433        N  0.17664028  0.11384491  0.52118413    -0.37900
N434        N  0.25369455  0.42349094  0.47931054    -0.37900
C435        C  0.74324346  0.51200792  0.24781135    -0.04500
C436        C  0.72744580  0.48022894  0.25786723    -0.01600
C437        C  0.69715672  0.48206440  0.26401761     0.03400
C438        C  0.68223606  0.51561273  0.26028745    -0.04500
C439        C  0.69715469  0.54585930  0.24635877    -0.01600
C440        C  0.72737052  0.54421655  0.24019999     0.03300
C441        C  0.74223443  0.44543788  0.26212468     0.38000
C442        C  0.68138339  0.57936853  0.23928083     0.38000
C443        C  0.74205703  0.57672315  0.22776054     0.37200
C444        C  0.68180806  0.45000495  0.27633110     0.36400
N445        N  0.75354751  0.60274095  0.21768785    -0.38400
N446        N  0.66961643  0.42439486  0.28618594    -0.38400
N447        N  0.67102321  0.10840877  0.23481902    -0.37900
N448        N  0.75400526  0.41766679  0.26555424    -0.37900
C449        C  0.88641998  0.42390160  0.30801542    -0.04500
C450        C  0.87265470  0.44975567  0.32869279    -0.01600
C451        C  0.84950278  0.47131539  0.31682205     0.03400
C452        C  0.83914658  0.46568080  0.28486233    -0.04500
C453        C  0.85209300  0.43850482  0.26478460    -0.01600
C454        C  0.87606406  0.41851079  0.27596929     0.03300
C455        C  0.88311603  0.45516447  0.36166087     0.38000
C456        C  0.84136367  0.43208907  0.23189058     0.38000
C457        C  0.89008850  0.39223844  0.25432999     0.36400
C458        C  0.83716887  0.50029102  0.33684072     0.36400
N459        N  0.90157172  0.37162958  0.23706341    -0.38400
N460        N  0.82735114  0.52357767  0.35269554    -0.38400
N461        N  0.83287827  0.42712837  0.20568130    -0.37900
N462        N  0.89154046  0.45952567  0.38796425    -0.37900
C463        C  0.85806629  0.25902357  0.26996832    -0.04500
C464        C  0.84397598  0.23682305  0.29310796    -0.01600
C465        C  0.81338216  0.23319202  0.29312138     0.03400
C466        C  0.79621589  0.25017860  0.26843484    -0.04500
C467        C  0.81132177  0.26977223  0.24336575    -0.01600
C468        C  0.84189186  0.27409158  0.24441648     0.03300
C469        C  0.86103176  0.21925374  0.31832721     0.38000
C470        C  0.79602349  0.28773751  0.21707841     0.38000
C471        C  0.85696498  0.29450615  0.21916435     0.36400
C472        C  0.80035393  0.21361205  0.32019698     0.36400
N473        N  0.86887247  0.31042253  0.19875044    -0.38400
N474        N  0.79069207  0.19847849  0.34247254    -0.38400
N475        N  0.78431084  0.30236869  0.19591869    -0.37900
N476        N  0.87454155  0.20493830  0.33825949    -0.37900
C477        C  0.29041091  0.97225207  0.23778833    -0.04500
C478        C  0.30924979  0.00155463  0.22910195    -0.01600
C479        C  0.34018254  0.49484825  0.22828773     0.03400
C480        C  0.35184369  0.45988028  0.23545345    -0.04500
C481        C  0.33312459  0.93426088  0.24893941    -0.01600
C482        C  0.30278931  0.93948383  0.25003008     0.03300
C483        C  0.29772897  0.03796295  0.22374669     0.38000
C484        C  0.34543034  0.90010223  0.26068345     0.38000
C485        C  0.28444218  0.91066498  0.26345190     0.36400
C486        C  0.35904988  0.52423207  0.21690326     0.36400
N487        N  0.26991542  0.88794477  0.27474260    -0.38400
N488        N  0.37405044  0.54764701  0.20762225    -0.38400
N489        N  0.35520677  0.87288087  0.27006440    -0.37900
N490        N  0.28989753  0.56713545  0.22408368    -0.37900
C491        C  0.19658924  0.97630757  0.29279307    -0.04500
C492        C  0.19871639  0.01212181  0.30611025    -0.01600
C493        C  0.17683138  0.02531100  0.32655375     0.03400
C494        C  0.15382725  0.00173100  0.33628623    -0.04500
C495        C  0.15204774  0.96543722  0.32380422    -0.01600
C496        C  0.17311564  0.95304344  0.30133026     0.03300
C497        C  0.22203927  0.03684533  0.29615053     0.38000
C498        C  0.12852366  0.94121091  0.33367103     0.38000
C499        C  0.17017932  0.91704733  0.28604050     0.36400
C500        C  0.17678407  0.06429588  0.33517879     0.36400
N501        N  0.16521355  0.39101265  0.26974969    -0.38400
N502        N  0.17667693  0.09546226  0.34140047    -0.38400
N503        N  0.10660383  0.42507013  0.33666827    -0.37900
N504        N  0.24061540  0.05631130  0.28796147    -0.37900
C505        C  0.15688755  0.25092087  0.09668658    -0.04500
C506        C  0.14765436  0.27459108  0.07154104    -0.01600
C507        C  0.16812526  0.28858445  0.04912753     0.03400
C508        C  0.19734946  0.27713751  0.05031014    -0.04500
C509        C  0.20749145  0.26103241  0.07923518    -0.01600
C510        C  0.18739669  0.24882004  0.10281843     0.03300
C511        C  0.11740994  0.28480193  0.06841237     0.38000
C512        C  0.23834059  0.25551717  0.08445288     0.38000
C513        C  0.19869429  0.23402020  0.13300038     0.36400
C514        C  0.15941676  0.31559278  0.02534002     0.36400
N515        N  0.20808960  0.22244497  0.15693170    -0.38400
N516        N  0.15237906  0.33810782  0.00726193    -0.38400
N517        N  0.26291104  0.25118939  0.08882777    -0.37900
N518        N  0.09331994  0.29319140  0.06587100    -0.37900
C519        C  0.15320121  0.05988795  0.16633030    -0.04500
C520        C  0.18329484  0.06812336  0.16212450    -0.01600
C521        C  0.20460914  0.04157405  0.16975937     0.03400
C522        C  0.19616990  0.00721099  0.18258091    -0.04500
C523        C  0.16642283  0.99676682  0.18012811    -0.01600
C524        C  0.14502901  0.02316192  0.17286440     0.03300
C525        C  0.19279510  0.10453533  0.15203000     0.38000
C526        C  0.15762491  0.95920229  0.18738848     0.38000
C527        C  0.11458010  0.01260123  0.17271996     0.36400
C528        C  0.23504279  0.05001289  0.16470473     0.36400
N529        N  0.09027237  0.00422499  0.17257429    -0.38400
N530        N  0.25913016  0.05704270  0.15944053    -0.38400
N531        N  0.15058313  0.92932176  0.19338190    -0.37900
N532        N  0.20052801  0.13345933  0.14386640    -0.37900
C533        C  0.24384488  0.21729197  0.24248176    -0.04500
C534        C  0.22597769  0.24825953  0.23791810    -0.01600
C535        C  0.19557327  0.24379470  0.23455841     0.03400
C536        C  0.18275835  0.20835976  0.23736676    -0.04500
C537        C  0.20042173  0.17844053  0.24690835    -0.01600
C538        C  0.23078561  0.18280514  0.24888845     0.03300
C539        C  0.23870752  0.28486119  0.23805647     0.38000
C540        C  0.18755702  0.14249657  0.25330550     0.38000
C541        C  0.24875865  0.15134712  0.25632892     0.36400
C542        C  0.17806320  0.27525051  0.22581795     0.36400
N543        N  0.26355993  0.12677711  0.26249556    -0.38400
N544        N  0.16422127  0.30041605  0.21867509    -0.38400
N545        N  0.17743279  0.11375034  0.25815530    -0.37900
N546        N  0.24859629  0.31425623  0.23893499    -0.37900
C547        C  0.74682295  0.22275574  0.02265309    -0.04500
C548        C  0.72881275  0.25233363  0.03227870    -0.01600
C549        C  0.69842668  0.24684425  0.03557329     0.03400
C550        C  0.68582669  0.21213998  0.02817921    -0.04500
C551        C  0.70362557  0.18388091  0.01553725    -0.01600
C552        C  0.73393152  0.18878265  0.01354282     0.03300
C553        C  0.74137800  0.28853524  0.03811564     0.38000
C554        C  0.69079102  0.14922390  0.00494637     0.38000
C555        C  0.75200760  0.15802398  0.00362898     0.36400
C556        C  0.68035980  0.27627912  0.04806467     0.36400
N557        N  0.76477693  0.13706215  0.49320863    -0.38400
N558        N  0.66588051  0.29973219  0.05803359    -0.38400
N559        N  0.68105294  0.12151427  0.99592006    -0.37900
N560        N  0.75121105  0.31763126  0.04240347    -0.37900
C561        C  0.83184605  0.22870321  0.45346355    -0.04500
C562        C  0.82514817  0.25787642  0.43257438    -0.01600
C563        C  0.84644372  0.27163076  0.41122275     0.03400
C564        C  0.87439641  0.25485544  0.40942739    -0.04500
C565        C  0.87927507  0.22225685  0.42728798    -0.01600
C566        C  0.85788572  0.20916157  0.44899737     0.03300
C567        C  0.79696527  0.27552661  0.43465384     0.38000
C568        C  0.90622853  0.20220154  0.42379307     0.38000
C569        C  0.86244285  0.17541979  0.46691354     0.36400
C570        C  0.83969324  0.30479751  0.39318298     0.36400
N571        N  0.86583583  0.14811500  0.48072633    -0.38400
N572        N  0.83407997  0.33122823  0.37896873    -0.38400
N573        N  0.92774634  0.18617244  0.42117139    -0.37900
N574        N  0.77443884  0.28937591  0.43612098    -0.37900
C575        C  0.83778034  0.54004631  0.19282358    -0.04500
C576        C  0.86754740  0.54819806  0.19770818    -0.01600
C577        C  0.88892467  0.52956671  0.17929505     0.03400
C578        C  0.88039037  0.50508109  0.15386889    -0.04500
C579        C  0.85052213  0.50537371  0.14401820    -0.01600
C580        C  0.82950740  0.52345228  0.16325188     0.03300
C581        C  0.87593072  0.57222819  0.22456765     0.38000
C582        C  0.84037914  0.48541925  0.11537968     0.38000
C583        C  0.79905368  0.52190107  0.15415301     0.36400
C584        C  0.91917736  0.53385687  0.18844676     0.36400
N585        N  0.77480421  0.52067336  0.14677419    -0.38400
N586        N  0.94326039  0.53728141  0.19605224    -0.38400
N587        N  0.83169910  0.46898798  0.09312200    -0.37900
N588        N  0.88257771  0.59141491  0.24599175    -0.37900
C589        C  0.84504134  0.25405644  0.06882700    -0.04500
C590        C  0.87493651  0.24535000  0.06694722    -0.01600
C591        C  0.89619476  0.27205893  0.07496628     0.03400
C592        C  0.88771027  0.30682375  0.08718025    -0.04500
C593        C  0.85807677  0.31172130  0.09636980    -0.01600
C594        C  0.83688764  0.28506302  0.08743106     0.03300
C595        C  0.87891168  0.21055453  0.55371768     0.38000
C596        C  0.84858914  0.34502207  0.11293901     0.38000
C597        C  0.80681951  0.29010988  0.09680822     0.36400
C598        C  0.92664681  0.26396771  0.06958874     0.36400
N599        N  0.78300662  0.29404159  0.10507514    -0.38400
N600        N  0.95090389  0.25754693  0.06506210    -0.38400
N601        N  0.84087181  0.37147067  0.12619631    -0.37900
N602        N  0.88554999  0.18150738  0.54475875    -0.37900
C603        C  0.85247591  0.45414782  0.01463977    -0.04500
C604        C  0.83311915  0.91919737  0.00574415    -0.01600
C605        C  0.80359507  0.92163501  0.49778898     0.03400
C606        C  0.78739243  0.95406703  0.00544825    -0.04500
C607        C  0.80353854  0.98610556  0.01464161    -0.01600
C608        C  0.83401953  0.98443814  0.01981121     0.03300
C609        C  0.84716582  0.38503423  0.50698231     0.38000
C610        C  0.78888082  0.02095237  0.01953092     0.38000
C611        C  0.85377371  0.51987101  0.03127968     0.36400
C612        C  0.78818202  0.88875368  0.48686613     0.36400
N613        N  0.86642624  0.54534503  0.04104056    -0.38400
N614        N  0.77613668  0.86246528  0.47787277    -0.38400
N615        N  0.77721118  0.04871597  0.02378804    -0.37900
N616        N  0.85835942  0.35662697  0.50528672    -0.37900
C617        C  0.03234587  0.09816538  0.58973458     0.81000
N618        N  0.04321700  0.10247674  0.55903032    -0.77300
C619        C  0.03584201  0.07846320  0.53476141     0.83500
N620        N  0.01729106  0.05018032  0.54130097    -0.77200
C621        C  0.00602573  0.04538760  0.57155458     0.83600
N622        N  0.01426863  0.06889741  0.59612063    -0.78900
O623        O  0.96707878  0.43684403  0.50707316    -0.77700
C624        C  0.87794797  0.44714153  0.53559340     0.83400
O625        O  0.99126517  0.49387879  0.60257121    -0.78800
O626        O  0.89184928  0.45117731  0.62903403    -0.80300
O627        O  0.92706882  0.34060438  0.56775595    -0.80100
O628        O  0.98317299  0.38169608  0.52260784    -0.78700
Zn629      Zn  0.94409458  0.46025619  0.54397381     1.55700
O630        O  0.90370293  0.36294145  0.61035482    -0.80100
Cd631      Cd  0.96236388  0.37831073  0.56911948     1.59700
Cd632      Cd  0.96377798  0.45163913  0.61931990     1.59600
O633        O  0.98804765  0.36147951  0.60893843    -0.80100
O634        O  0.94610975  0.42773769  0.58043866    -1.90600
Cd635      Cd  0.90686817  0.41577960  0.59485433     1.59900
O636        O  0.98283069  0.40736374  0.64566939    -0.80000
O637        O  0.87870849  0.42245957  0.55736488    -0.78700
C638        C  0.98778074  0.51414112  0.57744807     0.83800
C639        C  0.98171258  0.40768161  0.50159395     0.83500
O640        O  0.90038885  0.46726991  0.52928936    -0.77700
C641        C  0.90691478  0.33777411  0.58916352     0.84300
O642        O  0.96857658  0.50655468  0.55563960    -0.77700
C643        C  0.99112196  0.37457541  0.63789339     0.84400
C644        C  0.90371867  0.47706623  0.64519699     0.84800
O645        O  0.93136341  0.48091368  0.64532295    -0.80200
C646        C  0.77518306  0.23096810  0.51772324     0.81000
N647        N  0.79186021  0.24020050  0.54420577    -0.77300
C648        C  0.82138351  0.24229475  0.54113942     0.83500
N649        N  0.83719190  0.23165897  0.01391687    -0.77200
C650        C  0.82098930  0.22279372  0.98768881     0.83600
N651        N  0.79172816  0.22079752  0.99067765    -0.78900
C652        C  0.00267071  0.34992009  0.66383366     0.81000
N653        N  0.01978671  0.32015336  0.65626649    -0.77300
C654        C  0.02833195  0.29653232  0.68023526     0.83500
N655        N  0.01855027  0.30190220  0.71097663    -0.77200
C656        C  0.00105124  0.33041793  0.71876898     0.83600
N657        N  0.99309983  0.35447717  0.69515367    -0.78900
O658        O  0.06690592  0.18610581  0.74740202    -0.77700
C659        C  0.15345439  0.19940008  0.71931287     0.83400
O660        O  0.04444006  0.24404583  0.64870529    -0.78800
O661        O  0.14352164  0.19769355  0.62870513    -0.80300
O662        O  0.10738743  0.08779401  0.68766556    -0.80100
O663        O  0.05199697  0.12934359  0.73330417    -0.78700
Zn664      Zn  0.08847793  0.20959211  0.70974639     1.55700
O665        O  0.13253317  0.11037418  0.64660744    -0.80100
Cd666      Cd  0.07190596  0.12554256  0.68585597     1.59700
Cd667      Cd  0.07144481  0.19985746  0.63469619     1.59600
O668        O  0.04633649  0.10921756  0.64511064    -0.80100
O669        O  0.08726259  0.17555294  0.67412530    -1.90600
Cd670      Cd  0.12677212  0.16318494  0.66168454     1.59900
O671        O  0.05213946  0.15529290  0.60888713    -0.80000
O672        O  0.15267273  0.17154129  0.70045718    -0.78700
C673        C  0.04715589  0.26396878  0.67445345     0.83800
C674        C  0.05345935  0.15614533  0.75400087     0.83500
O675        O  0.13125066  0.22006893  0.72335378    -0.77700
C676        C  0.12866008  0.08545756  0.66757318     0.84300
O677        O  0.06459514  0.25508542  0.69739531    -0.77700
C678        C  0.04358483  0.12251660  0.61630621     0.84400
C679        C  0.13303947  0.22258903  0.61100687     0.84800
O680        O  0.10552680  0.22665824  0.60915979    -0.80200
C681        C  0.25685308  0.97130581  0.73906450     0.81000
N682        N  0.24188434  0.98277178  0.71204188    -0.77300
C683        C  0.21213395  0.98460742  0.71294890     0.83500
N684        N  0.19837058  0.97624436  0.74092230    -0.77200
C685        C  0.21277475  0.96622457  0.76780955     0.83600
N686        N  0.24211063  0.96418897  0.76703864    -0.78900
C687        C  0.03473506  0.13576602  0.84108175     0.81000
N688        N  0.01787129  0.16575499  0.84812709    -0.77300
C689        C  0.01043429  0.18969452  0.82414407     0.83500
N690        N  0.02093893  0.18424278  0.79357155    -0.77200
C691        C  0.03813581  0.15523526  0.78601565     0.83600
N692        N  0.04503764  0.13084981  0.80993325    -0.78900
O693        O  0.90921175  0.25667924  0.78015686    -0.77700
C694        C  0.98571971  0.32852005  0.75021867     0.83400
O695        O  0.99007869  0.23932339  0.85688876    -0.78800
O696        O  0.99061909  0.37617346  0.85915766    -0.80300
O697        O  0.90233850  0.37161726  0.84764723    -0.80100
O698        O  0.88664354  0.30895832  0.79105026    -0.78700
Zn699      Zn  0.95069425  0.27431707  0.79246403     1.55700
O700        O  0.93214000  0.39399845  0.81047205    -0.80100
Cd701      Cd  0.90927433  0.31911753  0.83285651     1.59700
Cd702      Cd  0.96386411  0.28594985  0.86941383     1.59600
O703        O  0.89104543  0.28575581  0.86535388    -0.80100
O704        O  0.95026971  0.30838662  0.82796295    -1.90600
Cd705      Cd  0.96709456  0.35786010  0.81759073     1.59900
O706        O  0.92732732  0.26707437  0.89638245    -0.80000
O707        O  0.98869612  0.35376043  0.77207354    -0.78700
C708        C  0.99103277  0.22174905  0.82957823     0.83800
C709        C  0.88639553  0.27649971  0.77941015     0.83500
O710        O  0.97084157  0.29923623  0.75511215    -0.77700
C711        C  0.90841019  0.39559643  0.82656826     0.84300
O712        O  0.97630536  0.23205530  0.80500763    -0.77700
C713        C  0.90011078  0.26886030  0.89004918     0.84400
C714        C  0.99308795  0.36297434  0.88798008     0.84800
O715        O  0.98438410  0.33018502  0.89508089    -0.80200
C716        C  0.77663320  0.50942165  0.75496796     0.81000
N717        N  0.79034862  0.49014546  0.77885152    -0.77300
C718        C  0.81977459  0.49076304  0.78097370     0.83500
N719        N  0.83524874  0.50989035  0.75902484    -0.77200
C720        C  0.82268009  0.52745715  0.73406238     0.83600
N721        N  0.79308092  0.52698704  0.73192714    -0.78900
C722        C  0.00429739  0.38736081  0.91475423     0.81000
N723        N  0.99345816  0.38301671  0.94554227    -0.77300
C724        C  0.00098449  0.40694393  0.96990529     0.83500
N725        N  0.01960503  0.43512541  0.96331424    -0.77200
C726        C  0.03083238  0.44004970  0.93304155     0.83600
N727        N  0.02249150  0.41660616  0.90842554    -0.78900
O728        O  0.13537986  0.51718319  0.97895810    -0.77700
C729        C  0.05204646  0.07884433  0.00481884     0.83400
O730        O  0.04910561  0.49130255  0.90166045    -0.78800
O731        O  0.04816397  0.12531348  0.89650135    -0.80300
O732        O  0.13214150  0.12354872  0.90205070    -0.80100
O733        O  0.15417937  0.06479695  0.95730964    -0.78700
Zn734      Zn  0.08967142  0.02547249  0.96360014     1.55700
O735        O  0.10672319  0.14712104  0.94244497    -0.80100
Cd736      Cd  0.12766963  0.07148476  0.91853168     1.59700
Cd737      Cd  0.07171316  0.03500199  0.88772473     1.59600
O738        O  0.14374732  0.03768656  0.88506791    -0.80100
O739        O  0.08780810  0.05884186  0.92785968    -1.90600
Cd740      Cd  0.07181416  0.10868242  0.93805605     1.59900
O741        O  0.10559472  0.01353155  0.85926032    -0.80000
O742        O  0.04986590  0.10420798  0.98332303    -0.78700
C743        C  0.05052146  0.47235525  0.92788156     0.83800
C744        C  0.15746647  0.53898055  0.97679665     0.83500
O745        O  0.06741596  0.05005567  0.00025402    -0.77700
C746        C  0.12818374  0.14902825  0.92268301     0.84300
O747        O  0.06733313  0.48190729  0.95145978    -0.77700
C748        C  0.13298082  0.01792867  0.86260371     0.84400
C749        C  0.04509178  0.11143303  0.86778704     0.84800
O750        O  0.05235827  0.07812137  0.86097980    -0.80200
C751        C  0.25778491  0.26039304  0.99143636     0.81000
N752        N  0.24303338  0.26864633  0.51776001    -0.77300
C753        C  0.21352682  0.26951778  0.51717701     0.83500
N754        N  0.19957941  0.25901906  0.48962618    -0.77200
C755        C  0.21255123  0.25071534  0.96507635     0.83600
N756        N  0.24219414  0.24907962  0.96480526    -0.78900
C757        C  0.49996644  0.34289720  0.58965143     0.81000
N758        N  0.49018725  0.34585992  0.55826965    -0.77300
C759        C  0.49798293  0.32051527  0.53515351     0.83500
N760        N  0.51559082  0.29241468  0.54357424    -0.77200
C761        C  0.52564525  0.28867790  0.57437590     0.83600
N762        N  0.51725900  0.31358225  0.59773568    -0.78900
O763        O  0.63039731  0.21745575  0.53368357    -0.77700
C764        C  0.55174188  0.14882890  0.50360460     0.83400
O765        O  0.54408678  0.23890730  0.60751776    -0.78800
O766        O  0.54641749  0.10511029  0.61376082    -0.80300
O767        O  0.63599845  0.10084115  0.59727215    -0.80100
O768        O  0.65500696  0.17488864  0.56084527    -0.78700
Zn769      Zn  0.58806136  0.20303168  0.54627213     1.55700
O770        O  0.60167141  0.08305408  0.56279204    -0.80100
Cd771      Cd  0.62736703  0.15575497  0.59504651     1.59700
Cd772      Cd  0.57195933  0.19531833  0.62188210     1.59600
O773        O  0.64194495  0.18144653  0.63575475    -0.80100
O774        O  0.58767380  0.16988505  0.58252922    -1.90600
Cd775      Cd  0.56894442  0.12166930  0.57156154     1.59900
O776        O  0.60732411  0.22208912  0.64526230    -0.80000
O777        O  0.54705304  0.12534178  0.52623945    -0.78700
C778        C  0.54530104  0.25700173  0.58081167     0.83800
C779        C  0.65413955  0.20108457  0.54062599     0.83500
O780        O  0.56784926  0.17727129  0.50819560    -0.77700
C781        C  0.62650657  0.07843759  0.57592699     0.84300
O782        O  0.56222313  0.24715016  0.55759280    -0.77700
C783        C  0.63355665  0.21142920  0.64854143     0.84400
C784        C  0.54517680  0.11838803  0.64284681     0.84800
O785        O  0.55394980  0.15133442  0.64991483    -0.80200
C786        C  0.75564715  0.95610680  0.50140706     0.81000
N787        N  0.73973784  0.97712998  0.52272500    -0.77300
C788        C  0.71017711  0.97719438  0.52071742     0.83500
N789        N  0.69575107  0.95287833  0.00306012    -0.77200
C790        C  0.71014955  0.93428670  0.97976513     0.83600
N791        N  0.73982113  0.93539058  0.98002295    -0.78900
C792        C  0.53483225  0.09355965  0.66933505     0.81000
N793        N  0.54622560  0.09689793  0.70008636    -0.77300
C794        C  0.53915445  0.07182382  0.72347947     0.83500
N795        N  0.52065560  0.04371690  0.71591968    -0.77200
C796        C  0.50917758  0.03979394  0.68567716     0.83600
N797        N  0.51684354  0.06434033  0.66212641    -0.78900
O798        O  0.40452045  0.47041350  0.72534400    -0.77700
C799        C  0.48025636  0.39996536  0.75329687     0.83400
O800        O  0.49277705  0.48956865  0.65254734    -0.78800
O801        O  0.48502159  0.35566616  0.64430976    -0.80300
O802        O  0.39806121  0.36273838  0.64721665    -0.80100
O803        O  0.38091128  0.42343898  0.70210621    -0.78700
Zn804      Zn  0.44661809  0.45638585  0.71170157     1.55700
O805        O  0.42363702  0.33780157  0.68681414    -0.80100
Cd806      Cd  0.40624597  0.41499607  0.66269973     1.59700
Cd807      Cd  0.46386427  0.44772749  0.63556652     1.59600
O808        O  0.39126974  0.45251943  0.63105465    -0.80100
O809        O  0.44655408  0.42399928  0.67464025    -1.90600
Cd810      Cd  0.46033843  0.37329764  0.68488619     1.59900
O811        O  0.43093231  0.47895010  0.61181172    -0.80000
O812        O  0.48105453  0.37440873  0.73148114    -0.78700
C813        C  0.49089028  0.50862241  0.67897759     0.83800
C814        C  0.38128978  0.45132833  0.72093282     0.83500
O815        O  0.46715009  0.43031721  0.74841049    -0.77700
C816        C  0.40181052  0.33706044  0.66747654     0.84300
O817        O  0.47280773  0.50025615  0.70145047    -0.77700
C818        C  0.40318663  0.47757251  0.61433521     0.84400
C819        C  0.48865211  0.36856708  0.61552801     0.84800
O820        O  0.48141874  0.40187029  0.60813252    -0.80200
C821        C  0.27506167  0.22121062  0.74143510     0.81000
N822        N  0.28920455  0.23492265  0.71480035    -0.77300
C823        C  0.31882586  0.23660528  0.71439850     0.83500
N824        N  0.33366831  0.22572930  0.74101111    -0.77200
C825        C  0.31998716  0.21274541  0.76768955     0.83600
N826        N  0.29059015  0.21054934  0.76782399    -0.78900
C827        C  0.53610636  0.12553850  0.91695429     0.81000
N828        N  0.51816596  0.15438569  0.90910614    -0.77300
C829        C  0.50942593  0.17897100  0.93267691     0.83500
N830        N  0.51988810  0.17548406  0.96333869    -0.77200
C831        C  0.53818046  0.14799533  0.97142801     0.83600
N832        N  0.54621430  0.12291701  0.94821618    -0.78900
O833        O  0.46881800  0.29033345  0.99908331    -0.77700
C834        C  0.38061671  0.27095139  0.97041203     0.83400
O835        O  0.49114727  0.22954911  0.90039597    -0.78800
O836        O  0.39294353  0.28607143  0.87477948    -0.80300
O837        O  0.43364500  0.38552086  0.94495920    -0.80100
O838        O  0.48878756  0.34288499  0.98107516    -0.78700
Zn839      Zn  0.44690146  0.26484221  0.96201967     1.55700
O840        O  0.40073418  0.36772826  0.90897881    -0.80100
Cd841      Cd  0.46639776  0.34682603  0.93631677     1.59700
Cd842      Cd  0.46346742  0.27346092  0.88646776     1.59600
O843        O  0.48880238  0.36349696  0.89411144    -0.80100
O844        O  0.44769668  0.29842296  0.92596929    -1.90600
Cd845      Cd  0.40803541  0.31294362  0.91423531     1.59900
O846        O  0.48131931  0.31728231  0.85803669    -0.80000
O847        O  0.38035978  0.29677854  0.94977871    -0.78700
C848        C  0.48947541  0.21058119  0.92660049     0.83800
C849        C  0.48487107  0.31889452  0.00345216     0.83500
O850        O  0.40385898  0.25290098  0.97653710    -0.77700
C851        C  0.40929042  0.39016611  0.93073845     0.84300
O852        O  0.47217888  0.21980809  0.94977479    -0.77700
C853        C  0.49005758  0.35025448  0.86504257     0.84400
C854        C  0.40171138  0.25685921  0.86106496     0.84800
O855        O  0.42818610  0.24697277  0.86339905    -0.80200
C856        C  0.28108829  0.51771759  0.00183683     0.81000
N857        N  0.29572122  0.53344308  0.52556377    -0.77300
C858        C  0.32531245  0.53274908  0.52640426     0.83500
N859        N  0.33938057  0.51367526  0.50321905    -0.77200
C860        C  0.32542058  0.49298600  0.98242911     0.83600
N861        N  0.29586136  0.49504710  0.98074034    -0.78900
C862        C  0.50047952  0.37511493  0.83858264     0.81000
N863        N  0.51871605  0.40407312  0.84587940    -0.77300
C864        C  0.52655372  0.42862620  0.82240618     0.83500
N865        N  0.51504155  0.42498980  0.79214885    -0.77200
C866        C  0.49635051  0.39713598  0.78448832     0.83600
N867        N  0.48909483  0.37202765  0.80780728    -0.78900
O868        O  0.56771704  0.03782281  0.75932776    -0.77700
C869        C  0.65498744  0.52090750  0.78045177     0.83400
O870        O  0.54568331  0.47873235  0.85516910    -0.78800
O871        O  0.64600737  0.01010633  0.87169526    -0.80300
O872        O  0.61464503  0.12917179  0.82245093    -0.80100
O873        O  0.55662606  0.09496287  0.77563202    -0.78700
Zn874      Zn  0.58963221  0.01144138  0.79442642     1.55700
O875        O  0.63998267  0.10085025  0.86058998    -0.80100
Cd876      Cd  0.57722699  0.09487763  0.82244417     1.59700
Cd877      Cd  0.57332789  0.02072139  0.87134902     1.59600
O878        O  0.55179876  0.11283817  0.86239686    -0.80100
O879        O  0.59053664  0.04355805  0.83178660    -1.90600
Cd880      Cd  0.63138001  0.05004946  0.84205058     1.59900
O881        O  0.55522933  0.06669498  0.89853443    -0.80000
O882        O  0.65534210  0.04445072  0.80090205    -0.78700
C883        C  0.54700578  0.45978457  0.82863929     0.83800
C884        C  0.55570741  0.06883070  0.75433324     0.83500
O885        O  0.63225135  0.50049222  0.77744531    -0.77700
C886        C  0.63660979  0.12778725  0.84156585     0.84300
O887        O  0.56471597  0.46811084  0.80572009    -0.77700
C888        C  0.54783271  0.09994380  0.89110742     0.84400
C889        C  0.63364557  0.98782768  0.89090818     0.84800
O890        O  0.60614019  0.98975259  0.89562980    -0.80200
C891        C  0.76320093  0.24580915  0.76659370     0.81000
N892        N  0.74707710  0.25631829  0.74034015    -0.77300
C893        C  0.71756141  0.25323138  0.74053581     0.83500
N894        N  0.70430448  0.23859692  0.76671192    -0.77200
C895        C  0.71955251  0.22742945  0.79270481     0.83600
N896        N  0.74895731  0.23087802  0.79257920    -0.78900
C897        C  0.66064440  0.15499180  0.83858964    -0.04500
C898        C  0.68904790  0.14233088  0.83162444    -0.01600
C899        C  0.70993935  0.16675251  0.81882475     0.03400
C900        C  0.70373343  0.20468521  0.81667023    -0.04500
C901        C  0.67729008  0.21804143  0.82945614    -0.01600
C902        C  0.65523992  0.19314785  0.83895504     0.03300
C903        C  0.69652035  0.10378224  0.83537638     0.38000
C904        C  0.67240685  0.25742848  0.83133290     0.38000
C905        C  0.62692696  0.20668613  0.84849565     0.36400
C906        C  0.73592362  0.15176776  0.80389133     0.36400
N907        N  0.60430310  0.21750985  0.85602260    -0.38400
N908        N  0.75622437  0.13920236  0.79159525    -0.38400
N909        N  0.66870680  0.28887836  0.83329738    -0.37900
N910        N  0.70315358  0.07335529  0.83880433    -0.37900
C911        C  0.38842375  0.41846387  0.94275085    -0.04500
C912        C  0.38471554  0.42297702  0.97671065    -0.01600
C913        C  0.36077782  0.44242518  0.98889395     0.03400
C914        C  0.34264869  0.46261628  0.96772580    -0.04500
C915        C  0.34629064  0.45874592  0.93385883    -0.01600
C916        C  0.36861434  0.43590639  0.92134020     0.03300
C917        C  0.40526552  0.40745212  0.99960279     0.38000
C918        C  0.32736417  0.47853224  0.91204828     0.38000
C919        C  0.37181780  0.43159167  0.88640517     0.36400
C920        C  0.35620639  0.44265182  0.52168348     0.36400
N921        N  0.37431552  0.42809636  0.85851298    -0.38400
N922        N  0.35189719  0.44162206  0.54941748    -0.38400
N923        N  0.31214343  0.49422264  0.89464832    -0.37900
N924        N  0.42271416  0.39614642  0.51493593    -0.37900
C925        C  0.37969146  0.23473311  0.84244709    -0.04500
C926        C  0.38762190  0.21035092  0.81697916    -0.01600
C927        C  0.36610393  0.19655401  0.79562687     0.03400
C928        C  0.33732334  0.20942072  0.79788929    -0.04500
C929        C  0.32855939  0.22807956  0.82641908    -0.01600
C930        C  0.34958168  0.23941618  0.84930394     0.03300
C931        C  0.41770870  0.20058732  0.81150978     0.38000
C932        C  0.29842936  0.23833957  0.83131378     0.38000
C933        C  0.33981969  0.25650336  0.87948025     0.36400
C934        C  0.37343646  0.16917156  0.77117554     0.36400
N935        N  0.33162367  0.27008344  0.90332786    -0.38400
N936        N  0.37933410  0.14647300  0.75242827    -0.38400
N937        N  0.27448197  0.24673030  0.83533309    -0.37900
N938        N  0.44169167  0.19268668  0.80701674    -0.37900
C939        C  0.38336384  0.50490153  0.59791473    -0.04500
C940        C  0.35324559  0.50650004  0.60645961    -0.01600
C941        C  0.33309532  0.52384159  0.58579303     0.03400
C942        C  0.34267000  0.53975765  0.55654589    -0.04500
C943        C  0.37282157  0.54666078  0.55283303    -0.01600
C944        C  0.39320644  0.52863300  0.57290017     0.03300
C945        C  0.34204970  0.48880762  0.63547164     0.38000
C946        C  0.38275631  0.56906964  0.52586083     0.38000
C947        C  0.42395552  0.53349309  0.56653198     0.36400
C948        C  0.30224796  0.52143675  0.59292161     0.36400
N949        N  0.44847828  0.53766650  0.56139440    -0.38400
N950        N  0.27766848  0.51918724  0.59855875    -0.38400
N951        N  0.39065184  0.58685954  0.50428281    -0.37900
N952        N  0.33246762  0.47437247  0.65810944    -0.37900
C953        C  0.37895342  0.30795414  0.67038425    -0.04500
C954        C  0.34907577  0.31760220  0.67007162    -0.01600
C955        C  0.32760706  0.29126046  0.67830540     0.03400
C956        C  0.33591816  0.25601490  0.68875941    -0.04500
C957        C  0.36481078  0.24470670  0.68303496    -0.01600
C958        C  0.38646888  0.27074937  0.67489038     0.03300
C959        C  0.34022753  0.35525961  0.66404834     0.38000
C960        C  0.37204748  0.20602552  0.68526625     0.38000
C961        C  0.41646583  0.25933556  0.67183732     0.36400
C962        C  0.29717641  0.30059318  0.67580653     0.36400
N963        N  0.44041583  0.25022760  0.66953401    -0.38400
N964        N  0.27302623  0.30825404  0.67244996    -0.38400
N965        N  0.37782768  0.17507731  0.68608398    -0.37900
N966        N  0.33292474  0.38521130  0.65940736    -0.37900
C967        C  0.69244154  0.92510184  0.95022246    -0.04500
C968        C  0.66214746  0.92000358  0.95456970    -0.01600
C969        C  0.64221340  0.93841888  0.93424641     0.03400
C970        C  0.65261109  0.96002359  0.90800688    -0.04500
C971        C  0.68239753  0.95549097  0.89881067    -0.01600
C972        C  0.70206132  0.93769732  0.91982058     0.03300
C973        C  0.65519988  0.40379634  0.98438497     0.38000
C974        C  0.69366541  0.96998383  0.86848237     0.38000
C975        C  0.73246944  0.93450330  0.91106240     0.36400
C976        C  0.61416527  0.43967027  0.94387196     0.36400
N977        N  0.75668400  0.93174676  0.90394089    -0.38400
N978        N  0.58976924  0.43777204  0.95052321    -0.38400
N979        N  0.70319648  0.98169723  0.84460846    -0.37900
N980        N  0.64733607  0.38738123  0.00681367    -0.37900
C981        C  0.69935137  0.25774516  0.71098083    -0.04500
C982        C  0.70737332  0.24045292  0.68154647    -0.01600
C983        C  0.68575112  0.22968666  0.65907323     0.03400
C984        C  0.65580174  0.23354586  0.66701918    -0.04500
C985        C  0.64834470  0.25652475  0.69362892    -0.01600
C986        C  0.67030878  0.26956924  0.71489421     0.03300
C987        C  0.73735588  0.23041342  0.67543539     0.38000
C988        C  0.61826862  0.26525667  0.70042969     0.38000
C989        C  0.66291649  0.29380297  0.74185285     0.36400
C990        C  0.69475368  0.21388363  0.62812412     0.36400
N991        N  0.65699883  0.31349782  0.76309199    -0.38400
N992        N  0.70263059  0.20138376  0.60370517    -0.38400
N993        N  0.59431811  0.27242470  0.70600730    -0.37900
N994        N  0.76112931  0.22199995  0.67031512    -0.37900
C995        C  0.64675051  0.05001623  0.56293008    -0.04500
C996        C  0.65019685  0.04678109  0.52882011    -0.01600
C997        C  0.67341245  0.02657958  0.51578574     0.03400
C998        C  0.69171371  0.00577064  0.53629346    -0.04500
C999        C  0.68812658  0.00821370  0.57029395    -0.01600
C1000       C  0.66612858  0.03094524  0.58365029     0.03300
C1001       C  0.63047796  0.06515794  0.50667322     0.38000
C1002       C  0.70659377  0.98678591  0.59138138     0.38000
C1003       C  0.66284601  0.03364387  0.61869464     0.36400
C1004       C  0.68142860  0.02598893  0.98385973     0.36400
N1005       N  0.66026846  0.03576633  0.64667752    -0.38400
N1006       N  0.68697944  0.02686662  0.95639096    -0.38400
N1007       N  0.72136500  0.96964335  0.60817796    -0.37900
N1008       N  0.61836829  0.08032908  0.98867263    -0.37900
C1009       C  0.29031827  0.26007836  0.99135152    -0.04500
C1010       C  0.30611372  0.22805559  0.98271525    -0.01600
C1011       C  0.33676348  0.22979694  0.97894794     0.03400
C1012       C  0.35198497  0.26285385  0.98597191    -0.04500
C1013       C  0.33652711  0.29265992  0.99964854    -0.01600
C1014       C  0.30592672  0.29206059  0.00091633     0.03300
C1015       C  0.29111966  0.19302553  0.97909291     0.38000
C1016       C  0.35228000  0.32415766  0.01262676     0.38000
C1017       C  0.29038989  0.32282488  0.50990467     0.36400
C1018       C  0.35243445  0.19813050  0.96665464     0.36400
N1019       N  0.27795589  0.34925184  0.51713845    -0.38400
N1020       N  0.36495471  0.17280437  0.95690074    -0.38400
N1021       N  0.36450313  0.34899764  0.02407310    -0.37900
N1022       N  0.27945983  0.16473229  0.97694335    -0.37900
C1023       C  0.19394431  0.23206156  0.93997670    -0.04500
C1024       C  0.20198410  0.19737218  0.92762622    -0.01600
C1025       C  0.18054380  0.17011174  0.92202673     0.03400
C1026       C  0.15057610  0.17882563  0.92518232    -0.04500
C1027       C  0.14274964  0.21587989  0.93057944    -0.01600
C1028       C  0.16451617  0.24255455  0.93718620     0.03300
C1029       C  0.23204562  0.18992252  0.91976753     0.38000
C1030       C  0.11248132  0.22655964  0.92957794     0.38000
C1031       C  0.15697273  0.28112912  0.93977241     0.36400
C1032       C  0.18988353  0.13254554  0.91599223     0.36400
N1033       N  0.15364357  0.30869040  0.43447065    -0.38400
N1034       N  0.19770016  0.10267618  0.91159098    -0.38400
N1035       N  0.08833197  0.23512200  0.92877710    -0.37900
N1036       N  0.25577678  0.18409174  0.91215343    -0.37900
C1037       C  0.24825970  0.52122452  0.00018329    -0.04500
C1038       C  0.23028322  0.49128816  0.98977481    -0.01600
C1039       C  0.19985488  0.49581897  0.98562582     0.03400
C1040       C  0.18681425  0.53050108  0.99097135    -0.04500
C1041       C  0.20221075  0.05366291  0.00168778    -0.01600
C1042       C  0.23444742  0.55484853  0.00888047     0.03300
C1043       C  0.24281004  0.45537575  0.98351785     0.38000
C1044       C  0.18864230  0.08781185  0.01213636     0.38000
C1045       C  0.24902877  0.07962978  0.01996403     0.36400
C1046       C  0.18221839  0.46499249  0.97432190     0.36400
N1047       N  0.26196632  0.10394231  0.03144463    -0.38400
N1048       N  0.16812139  0.44030922  0.96551457    -0.38400
N1049       N  0.17791505  0.11509600  0.02034242    -0.37900
N1050       N  0.25270378  0.42667951  0.97839928    -0.37900
C1051       C  0.74391635  0.50923374  0.75326493    -0.04500
C1052       C  0.72761285  0.47764593  0.76284699    -0.01600
C1053       C  0.69715269  0.47973276  0.76736098     0.03400
C1054       C  0.68267908  0.51339834  0.76276594    -0.04500
C1055       C  0.69813212  0.54318934  0.74883472    -0.01600
C1056       C  0.72852033  0.54123546  0.74406009     0.03300
C1057       C  0.74205865  0.44291980  0.76870053     0.38000
C1058       C  0.68271050  0.57655573  0.74047275     0.38000
C1059       C  0.74381884  0.57321378  0.73149740     0.37200
C1060       C  0.68112925  0.44797925  0.77926172     0.36400
N1061       N  0.75583433  0.59877384  0.72127651    -0.38400
N1062       N  0.66839795  0.42266019  0.78885720    -0.38400
N1063       N  0.66876177  0.09996670  0.73319568    -0.37900
N1064       N  0.75354194  0.41523028  0.77352810    -0.37900
C1065       C  0.88483999  0.42028181  0.81633505    -0.04500
C1066       C  0.87080916  0.44400282  0.83875803    -0.01600
C1067       C  0.84696071  0.46536643  0.82854524     0.03400
C1068       C  0.83603460  0.46105740  0.79671710    -0.04500
C1069       C  0.84808686  0.43422093  0.77567343    -0.01600
C1070       C  0.87315907  0.41526130  0.78483591     0.03300
C1071       C  0.88158297  0.44741833  0.87180250     0.38000
C1072       C  0.83562165  0.42785297  0.74354670     0.38000
C1073       C  0.88713829  0.39087127  0.76151607     0.36400
C1074       C  0.83422990  0.49246897  0.85022529     0.36400
N1075       N  0.89867060  0.37191648  0.74286736    -0.38400
N1076       N  0.82400520  0.51409185  0.86753601    -0.38400
N1077       N  0.82567972  0.42289020  0.71799097    -0.37900
N1078       N  0.89013852  0.45002875  0.89821903    -0.37900
C1079       C  0.85770026  0.26079017  0.77012356    -0.04500
C1080       C  0.84377510  0.23684974  0.79200797    -0.01600
C1081       C  0.81339884  0.23117062  0.79056939     0.03400
C1082       C  0.79618931  0.24912950  0.76648437    -0.04500
C1083       C  0.81117453  0.27080788  0.74273304    -0.01600
C1084       C  0.84163117  0.27626494  0.74465186     0.03300
C1085       C  0.86066121  0.21949566  0.81750344     0.38000
C1086       C  0.79577797  0.28948914  0.71692249     0.38000
C1087       C  0.85666911  0.29783537  0.72016200     0.36400
C1088       C  0.80059808  0.20784994  0.81536387     0.36400
N1089       N  0.86849280  0.31453269  0.70017964    -0.38400
N1090       N  0.79130434  0.18958718  0.83592844    -0.38400
N1091       N  0.78393164  0.30469804  0.69618171    -0.37900
N1092       N  0.87399543  0.20548305  0.83775430    -0.37900
C1093       C  0.28921082  0.96742915  0.73924864    -0.04500
C1094       C  0.30784865  0.99770759  0.73285067    -0.01600
C1095       C  0.34117920  0.49711162  0.73013163     0.03400
C1096       C  0.35283567  0.46170921  0.73537351    -0.04500
C1097       C  0.33211753  0.92883136  0.74714383    -0.01600
C1098       C  0.30173885  0.93362343  0.74858788     0.03300
C1099       C  0.29584945  0.03421692  0.72946825     0.38000
C1100       C  0.34458486  0.89386208  0.75658504     0.38000
C1101       C  0.28339146  0.90330966  0.75921093     0.36400
C1102       C  0.35996578  0.52718962  0.72004318     0.36400
N1103       N  0.26882066  0.87928217  0.76811015    -0.38400
N1104       N  0.37485839  0.55125022  0.71187546    -0.38400
N1105       N  0.35455522  0.86603830  0.76417916    -0.37900
N1106       N  0.29020796  0.56895300  0.72738222    -0.37900
C1107       C  0.19744507  0.97342292  0.79837553    -0.04500
C1108       C  0.20014842  0.00951979  0.81093446    -0.01600
C1109       C  0.17761016  0.02456479  0.82940347     0.03400
C1110       C  0.15399176  0.00208928  0.83938900    -0.04500
C1111       C  0.15246456  0.96488917  0.82914985    -0.01600
C1112       C  0.17363456  0.95102448  0.80750552     0.03300
C1113       C  0.22487286  0.03259010  0.80214557     0.38000
C1114       C  0.12927324  0.94109172  0.84068009     0.38000
C1115       C  0.17045834  0.91435678  0.79361033     0.36400
C1116       C  0.17759808  0.06414022  0.83549085     0.36400
N1117       N  0.16607902  0.39532285  0.77226670    -0.38400
N1118       N  0.17743623  0.09571889  0.83971420    -0.38400
N1119       N  0.10848403  0.42966170  0.83987908    -0.37900
N1120       N  0.24460632  0.05086402  0.79523960    -0.37900
C1121       C  0.15421740  0.24613934  0.59233287    -0.04500
C1122       C  0.14540452  0.26908394  0.56649009    -0.01600
C1123       C  0.16642856  0.28364018  0.54499206     0.03400
C1124       C  0.19579900  0.27298194  0.54746379    -0.04500
C1125       C  0.20519990  0.25708833  0.57679740    -0.01600
C1126       C  0.18451962  0.24474314  0.59964479     0.03300
C1127       C  0.11503202  0.27746200  0.56131912     0.38000
C1128       C  0.23589401  0.25180281  0.58320088     0.38000
C1129       C  0.19494967  0.23051536  0.63043707     0.36400
C1130       C  0.15808708  0.31029483  0.52072048     0.36400
N1131       N  0.20364094  0.21928700  0.65482512    -0.38400
N1132       N  0.15134664  0.33250100  0.50220465    -0.38400
N1133       N  0.26031834  0.24756755  0.58855925    -0.37900
N1134       N  0.09084349  0.28441165  0.55706197    -0.37900
C1135       C  0.15086484  0.05557782  0.67019448    -0.04500
C1136       C  0.18101168  0.06392276  0.66701638    -0.01600
C1137       C  0.20219566  0.03732343  0.67483182     0.03400
C1138       C  0.19363975  0.00311293  0.68790497    -0.04500
C1139       C  0.16379203  0.99290176  0.68588124    -0.01600
C1140       C  0.14256015  0.01904744  0.67730379     0.03300
C1141       C  0.19066578  0.10072428  0.65824560     0.38000
C1142       C  0.15469215  0.95584342  0.69453203     0.38000
C1143       C  0.11212876  0.00844874  0.67623394     0.36400
C1144       C  0.23267840  0.04577394  0.67006527     0.36400
N1145       N  0.08784386  0.00002849  0.67521722    -0.38400
N1146       N  0.25683896  0.05273793  0.66515441    -0.38400
N1147       N  0.14735696  0.92640769  0.70166926    -0.37900
N1148       N  0.19854656  0.13002300  0.65137810    -0.37900
C1149       C  0.24284536  0.21760887  0.74199343    -0.04500
C1150       C  0.22493794  0.24827880  0.73614842    -0.01600
C1151       C  0.19471514  0.24337805  0.73159842     0.03400
C1152       C  0.18210764  0.20787863  0.73440477    -0.04500
C1153       C  0.19956077  0.17830777  0.74499039    -0.01600
C1154       C  0.22978412  0.18310395  0.74851136     0.03300
C1155       C  0.23734883  0.28506875  0.73636171     0.38000
C1156       C  0.18658977  0.14232115  0.75092773     0.38000
C1157       C  0.24751018  0.15208187  0.75787589     0.36400
C1158       C  0.17721750  0.27433281  0.72152700     0.36400
N1159       N  0.26174178  0.12758055  0.76572573    -0.38400
N1160       N  0.16335350  0.29904513  0.71330312    -0.38400
N1161       N  0.17632764  0.11358352  0.75546212    -0.37900
N1162       N  0.24688630  0.31465036  0.73736486    -0.37900
C1163       C  0.74324500  0.22542140  0.52049640    -0.04500
C1164       C  0.72463442  0.25424599  0.53042271    -0.01600
C1165       C  0.69443554  0.24762086  0.53398897     0.03400
C1166       C  0.68263778  0.21241372  0.52682534    -0.04500
C1167       C  0.70100117  0.18475827  0.51414706    -0.01600
C1168       C  0.73111881  0.19093918  0.51156334     0.03300
C1169       C  0.73634923  0.29080396  0.53658889     0.38000
C1170       C  0.68901272  0.14926568  0.50450206     0.38000
C1171       C  0.74982982  0.16094887  0.50128534     0.36400
C1172       C  0.67586706  0.27626452  0.54702934     0.36400
N1173       N  0.76647713  0.13353133  0.99588518    -0.38400
N1174       N  0.66102444  0.29905402  0.55752146    -0.38400
N1175       N  0.67989793  0.12085043  0.49644711    -0.37900
N1176       N  0.74527635  0.32026585  0.54131490    -0.37900
C1177       C  0.83552057  0.22453991  0.95572094    -0.04500
C1178       C  0.82814439  0.25326806  0.93461137    -0.01600
C1179       C  0.84915788  0.26773464  0.91327578     0.03400
C1180       C  0.87752135  0.25208555  0.91165325    -0.04500
C1181       C  0.88325748  0.22000015  0.92985825    -0.01600
C1182       C  0.86209183  0.20608913  0.95145655     0.03300
C1183       C  0.79948598  0.26970577  0.93633244     0.38000
C1184       C  0.91089779  0.20140156  0.92689299     0.38000
C1185       C  0.86738185  0.17255654  0.96940783     0.36400
C1186       C  0.84168371  0.30054822  0.89507929     0.36400
N1187       N  0.87132427  0.14538690  0.98323627    -0.38400
N1188       N  0.83550920  0.32667988  0.88073250    -0.38400
N1189       N  0.93299279  0.18659101  0.92473250    -0.37900
N1190       N  0.77658608  0.28258568  0.93748782    -0.37900
C1191       C  0.84225650  0.53481599  0.70573050    -0.04500
C1192       C  0.87238346  0.53946614  0.71202237    -0.01600
C1193       C  0.89316349  0.52214324  0.69179878     0.03400
C1194       C  0.88397129  0.50278933  0.66353615    -0.04500
C1195       C  0.85454260  0.50691213  0.65337788    -0.01600
C1196       C  0.83381376  0.52282402  0.67444358     0.03300
C1197       C  0.88172874  0.55916557  0.74113845     0.38000
C1198       C  0.84485076  0.49352730  0.62180041     0.38000
C1199       C  0.80357246  0.52426621  0.66462152     0.36400
C1200       C  0.92339280  0.52210517  0.70168742     0.36400
N1201       N  0.77949098  0.52535353  0.65663054    -0.38400
N1202       N  0.94747110  0.52207155  0.70978374    -0.38400
N1203       N  0.83662269  0.48255704  0.59692395    -0.37900
N1204       N  0.88919139  0.57483078  0.76436650    -0.37900
C1205       C  0.84129083  0.25695900  0.56697564    -0.04500
C1206       C  0.87092170  0.24686430  0.56552211    -0.01600
C1207       C  0.89279820  0.27235928  0.57443005     0.03400
C1208       C  0.88513322  0.30698370  0.58757696    -0.04500
C1209       C  0.85558272  0.31293722  0.59644916    -0.01600
C1210       C  0.83371292  0.28797039  0.58592277     0.03300
C1211       C  0.88382018  0.20922858  0.05552669     0.38000
C1212       C  0.84702964  0.34564903  0.61454156     0.38000
C1213       C  0.80359201  0.29499165  0.59388801     0.36400
C1214       C  0.92305906  0.26318594  0.56910434     0.36400
N1215       N  0.77974415  0.30070583  0.60109550    -0.38400
N1216       N  0.94715762  0.25587394  0.56459972    -0.38400
N1217       N  0.84013202  0.37156059  0.62915408    -0.37900
N1218       N  0.89121309  0.18039186  0.04680545    -0.37900
C1219       C  0.84913654  0.45216474  0.51916424    -0.04500
C1220       C  0.83380775  0.91940850  0.50386300    -0.01600
C1221       C  0.80292093  0.92109015  0.99932450     0.03400
C1222       C  0.78841442  0.95495010  0.50377201    -0.04500
C1223       C  0.80487452  0.98680185  0.51266907    -0.01600
C1224       C  0.83526994  0.98456040  0.51814882     0.03300
C1225       C  0.85185218  0.38965323  0.99427467     0.38000
C1226       C  0.79068512  0.02212451  0.51642871     0.38000
C1227       C  0.85165593  0.51976774  0.52749880     0.36400
C1228       C  0.78774119  0.88811263  0.98826869     0.36400
N1229       N  0.86487747  0.54623061  0.53349212    -0.38400
N1230       N  0.77567180  0.86184843  0.97928320    -0.38400
N1231       N  0.77940874  0.05032506  0.51959805    -0.37900
N1232       N  0.86380888  0.36242147  0.98851855    -0.37900
C1233       C  0.03409485  0.60194855  0.09067199     0.81000
N1234       N  0.04484591  0.60659488  0.05993497    -0.77300
C1235       C  0.03755030  0.58265047  0.03556290     0.83500
N1236       N  0.01925194  0.55410847  0.04204589    -0.77200
C1237       C  0.00814847  0.54890292  0.07230671     0.83600
N1238       N  0.01625516  0.57238524  0.09696654    -0.78900
O1239       O  0.96683556  0.93658465  0.00745586    -0.77700
C1240       C  0.87760052  0.94541053  0.03368475     0.83400
O1241       O  0.98937650  0.99580569  0.10349143    -0.78800
O1242       O  0.88959461  0.95273497  0.12538342    -0.80300
O1243       O  0.92786521  0.84009039  0.07001872    -0.80100
O1244       O  0.98288113  0.88154610  0.02344141    -0.78700
Zn1245     Zn  0.94347159  0.96050139  0.04383389     1.55700
O1246       O  0.90276679  0.86368552  0.11078925    -0.80100
Cd1247     Cd  0.96233859  0.87893418  0.07010516     1.59700
Cd1248     Cd  0.96215099  0.95273981  0.11946334     1.59600
O1249       O  0.98838937  0.86361470  0.11001226    -0.80100
O1250       O  0.94541243  0.92817138  0.08036279    -1.90600
Cd1251     Cd  0.90584922  0.91574870  0.09333391     1.59900
O1252       O  0.98136338  0.90910313  0.14670970    -0.80000
O1253       O  0.87870835  0.91976587  0.05453089    -0.78700
C1254       C  0.98614977  0.01579397  0.07814866     0.83800
C1255       C  0.98142190  0.90730815  0.00221740     0.83500
O1256       O  0.89965696  0.96670927  0.02862240    -0.77700
C1257       C  0.90741922  0.83735761  0.09109470     0.84300
O1258       O  0.96755192  0.00741178  0.05584700    -0.77700
C1259       C  0.99060959  0.87668482  0.13905897     0.84400
C1260       C  0.90106666  0.97851352  0.14202621     0.84800
O1261       O  0.92871554  0.98162699  0.14378198    -0.80200
C1262       C  0.77682368  0.73192190  0.01966643     0.81000
N1263       N  0.79404367  0.73977023  0.04604097    -0.77300
C1264       C  0.82356529  0.74110633  0.04253859     0.83500
N1265       N  0.83174564  0.73601621  0.50989254    -0.77200
C1266       C  0.81619054  0.72607311  0.48344493     0.83600
N1267       N  0.78693433  0.72338211  0.48567556    -0.78900
C1268       C  0.00229764  0.85221334  0.16508043     0.81000
N1269       N  0.02013811  0.82310887  0.15757778    -0.77300
C1270       C  0.02869735  0.79938905  0.18146236     0.83500
N1271       N  0.01825377  0.80394621  0.21198986    -0.77200
C1272       C  0.00004445  0.83168181  0.21967688     0.83600
N1273       N  0.99202686  0.85591711  0.19621500    -0.78900
O1274       O  0.06669686  0.68837077  0.24905838    -0.77700
C1275       C  0.15288966  0.70289295  0.22523176     0.83400
O1276       O  0.04635134  0.74790773  0.14971342    -0.78800
O1277       O  0.14570807  0.70484738  0.13583087    -0.80300
O1278       O  0.10905013  0.59114007  0.18761742    -0.80100
O1279       O  0.05339683  0.63111891  0.23436709    -0.78700
Zn1280     Zn  0.08859476  0.71305141  0.21238905     1.55700
O1281       O  0.13441572  0.61693554  0.14835155    -0.80100
Cd1282     Cd  0.07338358  0.62870492  0.18699199     1.59700
Cd1283     Cd  0.07334327  0.70336388  0.13638836     1.59600
O1284       O  0.04781463  0.61277890  0.14617287    -0.80100
O1285       O  0.08816803  0.67937953  0.17648367    -1.90600
Cd1286     Cd  0.12815870  0.66841985  0.16639079     1.59900
O1287       O  0.05404068  0.65895524  0.11019468    -0.80000
O1288       O  0.15211710  0.67450996  0.20698359    -0.78700
C1289       C  0.04800473  0.76729793  0.17588917     0.83800
C1290       C  0.05396728  0.65779816  0.25522236     0.83500
O1291       O  0.13095803  0.72430823  0.22764716    -0.77700
C1292       C  0.13044704  0.59034185  0.16759283     0.84300
O1293       O  0.06458004  0.75809091  0.19952154    -0.77700
C1294       C  0.04529201  0.62619248  0.11739892     0.84400
C1295       C  0.13553197  0.72734228  0.11562018     0.84800
O1296       O  0.10807866  0.72914194  0.11114931    -0.80200
C1297       C  0.25846017  0.47542636  0.23656162     0.81000
N1298       N  0.24392017  0.48755713  0.20945759    -0.77300
C1299       C  0.21416116  0.48950879  0.20993805     0.83500
N1300       N  0.19998691  0.48059938  0.23752677    -0.77200
C1301       C  0.21398667  0.46971233  0.26438170     0.83600
N1302       N  0.24328368  0.46760961  0.26406924    -0.78900
C1303       C  0.03550686  0.63628601  0.34200031     0.81000
N1304       N  0.01795674  0.66569169  0.34910214    -0.77300
C1305       C  0.00994046  0.68935788  0.32505276     0.83500
N1306       N  0.02059277  0.68428801  0.29452906    -0.77200
C1307       C  0.03843260  0.65596915  0.28698362     0.83600
N1308       N  0.04587935  0.63182731  0.31084857    -0.78900
O1309       O  0.90797034  0.75524625  0.28138275    -0.77700
C1310       C  0.98454625  0.82890614  0.25089011     0.83400
O1311       O  0.98814112  0.73806930  0.35771236    -0.78800
O1312       O  0.98916552  0.87381419  0.36019044    -0.80300
O1313       O  0.90026735  0.87182876  0.34559847    -0.80100
O1314       O  0.88699824  0.80921472  0.28849551    -0.78700
Zn1315     Zn  0.94970166  0.77360165  0.29251555     1.55700
O1316       O  0.93183656  0.89385618  0.31022547    -0.80100
Cd1317     Cd  0.90811285  0.81939486  0.33112248     1.59700
Cd1318     Cd  0.96128380  0.78425232  0.36937747     1.59600
O1319       O  0.88893493  0.78564914  0.36219504    -0.80100
O1320       O  0.94900478  0.80765057  0.32786956    -1.90600
Cd1321     Cd  0.96607087  0.85695041  0.31828881     1.59900
O1322       O  0.92373066  0.76452679  0.39397568    -0.80000
O1323       O  0.98800026  0.85330395  0.27334247    -0.78700
C1324       C  0.99002124  0.72101232  0.33025318     0.83800
C1325       C  0.88559577  0.77577150  0.27949184     0.83500
O1326       O  0.96938792  0.79963603  0.25509884    -0.77700
C1327       C  0.90734688  0.89564486  0.32476333     0.84300
O1328       O  0.97586080  0.73163892  0.30533065    -0.77700
C1329       C  0.89680711  0.76711424  0.38640772     0.84400
C1330       C  0.99084605  0.86041245  0.38897950     0.84800
O1331       O  0.98138789  0.82791873  0.39593912    -0.80200
C1332       C  0.77600166  0.01104336  0.24998788     0.81000
N1333       N  0.79034839  0.98985891  0.27213280    -0.77300
C1334       C  0.81987208  0.98967272  0.27263717     0.83500
N1335       N  0.83474191  0.01010984  0.25110234    -0.77200
C1336       C  0.82138033  0.03003970  0.22815016     0.83600
N1337       N  0.79178637  0.03011380  0.22736025    -0.78900
C1338       C  0.00217942  0.88441812  0.41570475     0.81000
N1339       N  0.99140549  0.88018780  0.44648959    -0.77300
C1340       C  0.99891424  0.90429861  0.47068311     0.83500
N1341       N  0.01742571  0.93255617  0.46388774    -0.77200
C1342       C  0.02855608  0.93724506  0.43352426     0.83600
N1343       N  0.02028062  0.91359923  0.40914960    -0.78900
O1344       O  0.13296701  0.01170863  0.47936683    -0.77700
C1345       C  0.05409272  0.57719447  0.50428305     0.83400
O1346       O  0.04665203  0.98831202  0.40180794    -0.78800
O1347       O  0.05045631  0.62555463  0.39704800    -0.80300
O1348       O  0.13595686  0.62075427  0.40184228    -0.80100
O1349       O  0.15662837  0.56190080  0.45626860    -0.78700
Zn1350     Zn  0.09155631  0.52389243  0.46304390     1.55700
O1351       O  0.11044129  0.64469366  0.44209334    -0.80100
Cd1352     Cd  0.13002343  0.56869923  0.41774272     1.59700
Cd1353     Cd  0.07302685  0.53475739  0.38702541     1.59600
O1354       O  0.14502892  0.53435096  0.38411188    -0.80100
O1355       O  0.08995470  0.55753257  0.42727196    -1.90600
Cd1356     Cd  0.07466433  0.60761721  0.43791507     1.59900
O1357       O  0.10625671  0.51385673  0.35707758    -0.80000
O1358       O  0.05279209  0.60323768  0.48332863    -0.78700
C1359       C  0.04834488  0.96920207  0.42795775     0.83800
C1360       C  0.15591577  0.03175797  0.47627311     0.83500
O1361       O  0.06882672  0.54801166  0.49928440    -0.77700
C1362       C  0.13209042  0.64622576  0.42253444     0.84300
O1363       O  0.06564545  0.97817203  0.45117921    -0.77700
C1364       C  0.13375036  0.51666620  0.36063843     0.84400
C1365       C  0.04638837  0.61183401  0.36843397     0.84800
O1366       O  0.05318177  0.57842673  0.36133419    -0.80200
C1367       C  0.26075157  0.75498559  0.49454817     0.81000
N1368       N  0.24539329  0.77118621  0.02039953    -0.77300
C1369       C  0.21587987  0.77148271  0.01985782     0.83500
N1370       N  0.20199072  0.76094606  0.99225726    -0.77200
C1371       C  0.21599667  0.74674179  0.46677551     0.83600
N1372       N  0.24560793  0.74446357  0.46732409    -0.78900
C1373       C  0.50054333  0.84365603  0.09014923     0.81000
N1374       N  0.49132457  0.84686027  0.05859729    -0.77300
C1375       C  0.49984588  0.82204088  0.03540265     0.83500
N1376       N  0.51760696  0.79415181  0.04393209    -0.77200
C1377       C  0.52711748  0.79011325  0.07491827     0.83600
N1378       N  0.51799159  0.81451329  0.09836615    -0.78900
O1379       O  0.63159417  0.71914749  0.03461731    -0.77700
C1380       C  0.55317907  0.64984711  0.00402874     0.83400
O1381       O  0.54521107  0.74007791  0.10807058    -0.78800
O1382       O  0.54738095  0.60537034  0.11318402    -0.80300
O1383       O  0.63765455  0.60253258  0.09736732    -0.80100
O1384       O  0.65691591  0.67889212  0.06373255    -0.78700
Zn1385     Zn  0.58930106  0.70415795  0.04689813     1.55700
O1386       O  0.60342132  0.58353151  0.06317208    -0.80100
Cd1387     Cd  0.62856976  0.65707896  0.09614024     1.59700
Cd1388     Cd  0.57245552  0.69569362  0.12219216     1.59600
O1389       O  0.64144969  0.67917467  0.13894510    -0.80100
O1390       O  0.58890121  0.67069216  0.08299612    -1.90600
Cd1391     Cd  0.57059339  0.62221415  0.07162078     1.59900
O1392       O  0.60739056  0.72081611  0.14733917    -0.80000
O1393       O  0.54886621  0.62598413  0.02640717    -0.78700
C1394       C  0.54662686  0.75828317  0.08144417     0.83800
C1395       C  0.65566283  0.70438767  0.04284043     0.83500
O1396       O  0.56901770  0.67851542  0.00876549    -0.77700
C1397       C  0.62817929  0.57947525  0.07664397     0.84300
O1398       O  0.56354360  0.74830378  0.05827328    -0.77700
C1399       C  0.63308634  0.70891705  0.15205955     0.84400
C1400       C  0.54531088  0.61877278  0.14214259     0.84800
O1401       O  0.55367503  0.65180260  0.14937986    -0.80200
C1402       C  0.75809831  0.45879400  0.00417555     0.81000
N1403       N  0.74293180  0.47940533  0.02644325    -0.77300
C1404       C  0.71334504  0.47839409  0.02650118     0.83500
N1405       N  0.69664587  0.45699037  0.50156546    -0.77200
C1406       C  0.71164024  0.43850704  0.47869858     0.83600
N1407       N  0.74122923  0.43925934  0.48010120    -0.78900
C1408       C  0.53467403  0.59400813  0.16843614     0.81000
N1409       N  0.54581532  0.59746815  0.19928044    -0.77300
C1410       C  0.53868850  0.57240580  0.22262117     0.83500
N1411       N  0.52039172  0.54416914  0.21490086    -0.77200
C1412       C  0.50916938  0.54010424  0.18454757     0.83600
N1413       N  0.51687668  0.56466557  0.16103665    -0.78900
O1414       O  0.40335223  0.97000775  0.22569549    -0.77700
C1415       C  0.47978212  0.89943407  0.25286059     0.83400
O1416       O  0.49028141  0.99073892  0.15131994    -0.78800
O1417       O  0.48412254  0.85559910  0.14443888    -0.80300
O1418       O  0.39584707  0.86327148  0.14759456    -0.80100
O1419       O  0.38017909  0.92150713  0.20460576    -0.78700
Zn1420     Zn  0.44567543  0.95621767  0.21183202     1.55700
O1421       O  0.42200290  0.83746430  0.18623070    -0.80100
Cd1422     Cd  0.40458556  0.91494141  0.16419134     1.59700
Cd1423     Cd  0.46203800  0.94747871  0.13522175     1.59600
O1424       O  0.38917159  0.95323398  0.13355302    -0.80100
O1425       O  0.44526269  0.92376783  0.17474747    -1.90600
Cd1426     Cd  0.45890127  0.87288289  0.18471070     1.59900
O1427       O  0.42839585  0.97656486  0.11051953    -0.80000
O1428       O  0.47986719  0.87371814  0.23116914    -0.78700
C1429       C  0.48893340  0.00952790  0.17794341     0.83800
C1430       C  0.38024490  0.95038434  0.22217246     0.83500
O1431       O  0.46690221  0.93000465  0.24813620    -0.77700
C1432       C  0.39985689  0.83713283  0.16730857     0.84300
O1433       O  0.47157610  0.00049467  0.20096567    -0.77700
C1434       C  0.40075862  0.97635914  0.11455861     0.84400
C1435       C  0.48833190  0.86881372  0.11587650     0.84800
O1436       O  0.48087982  0.90202076  0.10844570    -0.80200
C1437       C  0.27458465  0.72130244  0.24507254     0.81000
N1438       N  0.28830123  0.73563744  0.21840909    -0.77300
C1439       C  0.31794651  0.73638484  0.21700464     0.83500
N1440       N  0.33324549  0.72390439  0.24275116    -0.77200
C1441       C  0.31998451  0.71019719  0.26943876     0.83600
N1442       N  0.29059194  0.70898395  0.27045950    -0.78900
C1443       C  0.53547943  0.62388948  0.41661470     0.81000
N1444       N  0.51815317  0.65323485  0.40858974    -0.77300
C1445       C  0.50927434  0.67766488  0.43214167     0.83500
N1446       N  0.51881602  0.67339911  0.46305864    -0.77200
C1447       C  0.53646557  0.64540771  0.47144818     0.83600
N1448       N  0.54486335  0.62057674  0.44814880    -0.78900
O1449       O  0.46964676  0.79008934  0.49823567    -0.77700
C1450       C  0.38244991  0.76801616  0.47191368     0.83400
O1451       O  0.49175442  0.72853915  0.39963104    -0.78800
O1452       O  0.39274209  0.78083182  0.37698275    -0.80300
O1453       O  0.43179316  0.88429518  0.44245012    -0.80100
O1454       O  0.48741163  0.84419993  0.48110388    -0.78700
Zn1455     Zn  0.44815147  0.76418490  0.46144638     1.55700
O1456       O  0.39913617  0.86400417  0.40714763    -0.80100
Cd1457     Cd  0.46577089  0.84675966  0.43537586     1.59700
Cd1458     Cd  0.46421146  0.77264056  0.38569039     1.59600
O1459       O  0.48879617  0.86333430  0.39334040    -0.80100
O1460       O  0.44810441  0.79751812  0.42528421    -1.90600
Cd1461     Cd  0.40771653  0.81001238  0.41490711     1.59900
O1462       O  0.48227856  0.81661689  0.35750495    -0.80000
O1463       O  0.38107698  0.79447741  0.45195874    -0.78700
C1464       C  0.49001244  0.70978624  0.42594928     0.83800
C1465       C  0.48445205  0.81955419  0.50315484     0.83500
O1466       O  0.40612662  0.75053689  0.47671250    -0.77700
C1467       C  0.40713150  0.88728159  0.42844550     0.84300
O1468       O  0.47309511  0.71952356  0.44922252    -0.77700
C1469       C  0.49065158  0.84978757  0.36439772     0.84400
C1470       C  0.40241255  0.75331006  0.36148015     0.84800
O1471       O  0.42942823  0.74557386  0.36199836    -0.80200
C1472       C  0.27823313  0.01089156  0.50301141     0.81000
N1473       N  0.29424730  0.03052970  0.02193029    -0.77300
C1474       C  0.32377076  0.02961396  0.02338445     0.83500
N1475       N  0.33810071  0.01062642  0.00038970    -0.77200
C1476       C  0.32242757  0.98725107  0.48232172     0.83600
N1477       N  0.29285901  0.98887496  0.48129628    -0.78900
C1478       C  0.50113095  0.87450876  0.33778454     0.81000
N1479       N  0.51951927  0.90345438  0.34477015    -0.77300
C1480       C  0.52720188  0.92789345  0.32108220     0.83500
N1481       N  0.51531586  0.92419947  0.29101051    -0.77200
C1482       C  0.49642611  0.89644266  0.28369832     0.83600
N1483       N  0.48940593  0.87141852  0.30717005    -0.78900
O1484       O  0.56745265  0.53845957  0.25825686    -0.77700
C1485       C  0.65419319  0.02393420  0.27776765     0.83400
O1486       O  0.54605125  0.97850929  0.35348691    -0.78800
O1487       O  0.64672129  0.51075731  0.36751254    -0.80300
O1488       O  0.61344367  0.63058444  0.32313415    -0.80100
O1489       O  0.55603281  0.59546127  0.27484221    -0.78700
Zn1490     Zn  0.58986974  0.51198769  0.29294122     1.55700
O1491       O  0.63782585  0.60103966  0.36120638    -0.80100
Cd1492     Cd  0.57646960  0.59527340  0.32175247     1.59700
Cd1493     Cd  0.57401950  0.52050307  0.37012803     1.59600
O1494       O  0.55081978  0.61184371  0.36190081    -0.80100
O1495       O  0.59012670  0.54393733  0.33029424    -1.90600
Cd1496     Cd  0.63085575  0.55143404  0.33971264     1.59900
O1497       O  0.55543544  0.56566237  0.39781680    -0.80000
O1498       O  0.65441124  0.54929009  0.29795079    -0.78700
C1499       C  0.54741982  0.95945994  0.32701135     0.83800
C1500       C  0.55523412  0.56939386  0.25345404     0.83500
O1501       O  0.63191818  0.00261018  0.27515381    -0.77700
C1502       C  0.63481631  0.62876764  0.34305816     0.84300
O1503       O  0.56481239  0.96815655  0.30385736    -0.77700
C1504       C  0.54741853  0.59871511  0.39061641     0.84400
C1505       C  0.63521464  0.48921957  0.38796193     0.84800
O1506       O  0.60792775  0.49129573  0.39402553    -0.80200
C1507       C  0.76139449  0.74788015  0.27288188     0.81000
N1508       N  0.74487491  0.75693288  0.24649247    -0.77300
C1509       C  0.71540019  0.75341098  0.24713227     0.83500
N1510       N  0.70262363  0.73981390  0.27398883    -0.77200
C1511       C  0.71817222  0.73003919  0.30017289     0.83600
N1512       N  0.74758805  0.73378313  0.29955534    -0.78900
C1513       C  0.65884686  0.65619653  0.34199575    -0.04500
C1514       C  0.68748368  0.64388839  0.33581092    -0.01600
C1515       C  0.70885520  0.66893631  0.32511820     0.03400
C1516       C  0.70270129  0.70695582  0.32414703    -0.04500
C1517       C  0.67586517  0.71965897  0.33649975    -0.01600
C1518       C  0.65348078  0.69430067  0.34398981     0.03300
C1519       C  0.69474385  0.60511378  0.33798147     0.38000
C1520       C  0.67082073  0.75893705  0.33945823     0.38000
C1521       C  0.62492036  0.70730364  0.35318776     0.36400
C1522       C  0.73525410  0.65463891  0.31055042     0.36400
N1523       N  0.60210627  0.71765958  0.36051565    -0.38400
N1524       N  0.75581489  0.64256703  0.29840660    -0.38400
N1525       N  0.66692675  0.79028052  0.34222000    -0.37900
N1526       N  0.70113979  0.57445299  0.34014748    -0.37900
C1527       C  0.38527107  0.91402518  0.44089837    -0.04500
C1528       C  0.38131433  0.91703613  0.47495055    -0.01600
C1529       C  0.35754723  0.93635044  0.48763717     0.03400
C1530       C  0.33950654  0.95723283  0.46695287    -0.04500
C1531       C  0.34284901  0.95400999  0.43298535    -0.01600
C1532       C  0.36509420  0.93143132  0.41990062     0.03300
C1533       C  0.40147324  0.89995538  0.49738462     0.38000
C1534       C  0.32376085  0.97428368  0.41169677     0.38000
C1535       C  0.36753442  0.92695837  0.38490249     0.36400
C1536       C  0.35514007  0.94026058  0.01940763     0.36400
N1537       N  0.36921890  0.92324373  0.35695128    -0.38400
N1538       N  0.35050447  0.93903312  0.04706779    -0.38400
N1539       N  0.30841451  0.99042079  0.39476093    -0.37900
N1540       N  0.42367488  0.89859908  0.01395627    -0.37900
C1541       C  0.38063845  0.73058046  0.34305264    -0.04500
C1542       C  0.38854015  0.70753557  0.31661802    -0.01600
C1543       C  0.36678126  0.69348908  0.29569626     0.03400
C1544       C  0.33782965  0.70534330  0.29910537    -0.04500
C1545       C  0.32928763  0.72206340  0.32862627    -0.01600
C1546       C  0.35058934  0.73338259  0.35114682     0.03300
C1547       C  0.41871249  0.69947355  0.30971997     0.38000
C1548       C  0.29899959  0.73037019  0.33508950     0.38000
C1549       C  0.34107511  0.74902396  0.38202110     0.36400
C1550       C  0.37387914  0.66642250  0.27091140     0.36400
N1551       N  0.33304087  0.76171204  0.40630903    -0.38400
N1552       N  0.37955832  0.64373894  0.25206171    -0.38400
N1553       N  0.27494992  0.73724120  0.34044397    -0.37900
N1554       N  0.44275693  0.69296214  0.30400476    -0.37900
C1555       C  0.38074796  0.00258603  0.09694569    -0.04500
C1556       C  0.35035296  0.00348748  0.10443639    -0.01600
C1557       C  0.33048834  0.02002971  0.08290098     0.03400
C1558       C  0.34057914  0.03619726  0.05396623    -0.04500
C1559       C  0.37071037  0.04351044  0.05102845    -0.01600
C1560       C  0.39083212  0.02598231  0.07175006     0.03300
C1561       C  0.33853176  0.98579800  0.13315582     0.38000
C1562       C  0.38097730  0.06616922  0.02436456     0.38000
C1563       C  0.42163808  0.03103224  0.06581434     0.36400
C1564       C  0.29948810  0.01654178  0.08885159     0.36400
N1565       N  0.44619474  0.03524226  0.06090569    -0.38400
N1566       N  0.27479528  0.01340640  0.09348029    -0.38400
N1567       N  0.38913022  0.08424039  0.00308851    -0.37900
N1568       N  0.32844949  0.97144024  0.15557021    -0.37900
C1569       C  0.37706005  0.80785071  0.17024865    -0.04500
C1570       C  0.34707642  0.81706961  0.17009217    -0.01600
C1571       C  0.32596351  0.79096852  0.18007582     0.03400
C1572       C  0.33475850  0.75612762  0.19119781    -0.04500
C1573       C  0.36356367  0.74489545  0.18467158    -0.01600
C1574       C  0.38485100  0.77086173  0.17527482     0.03300
C1575       C  0.33777548  0.85399992  0.16195317     0.38000
C1576       C  0.37111685  0.70633945  0.18701696     0.38000
C1577       C  0.41477791  0.75955829  0.17111401     0.36400
C1578       C  0.29543477  0.80020483  0.17884623     0.36400
N1579       N  0.43867874  0.75062378  0.16781650    -0.38400
N1580       N  0.27112836  0.80767588  0.17673302    -0.38400
N1581       N  0.37727358  0.67551683  0.18780691    -0.37900
N1582       N  0.33011009  0.88333069  0.15542799    -0.37900
C1583       C  0.69488837  0.42951854  0.44850462    -0.04500
C1584       C  0.66474327  0.42261844  0.45185423    -0.01600
C1585       C  0.64467960  0.43986252  0.43093880     0.03400
C1586       C  0.65489554  0.46244209  0.40525806    -0.04500
C1587       C  0.68507705  0.46006001  0.39706992    -0.01600
C1588       C  0.70486118  0.44341965  0.41866700     0.03300
C1589       C  0.65499016  0.89852253  0.47567956     0.38000
C1590       C  0.69657090  0.47544077  0.36716732     0.38000
C1591       C  0.73565040  0.44288367  0.41114859     0.36400
C1592       C  0.61423114  0.93369407  0.43413394     0.36400
N1593       N  0.76018224  0.44227957  0.40502150    -0.38400
N1594       N  0.58964765  0.92949664  0.43887594    -0.38400
N1595       N  0.70623521  0.48766795  0.34355454    -0.37900
N1596       N  0.64691326  0.88070541  0.49715752    -0.37900
C1597       C  0.69682623  0.75575467  0.21755060    -0.04500
C1598       C  0.70579737  0.73918779  0.18808195    -0.01600
C1599       C  0.68486073  0.72691884  0.16533134     0.03400
C1600       C  0.65466306  0.72959990  0.17250488    -0.04500
C1601       C  0.64599141  0.75057021  0.19986659    -0.01600
C1602       C  0.66712003  0.76483818  0.22151151     0.03300
C1603       C  0.73627928  0.73187290  0.18193211     0.38000
C1604       C  0.61544359  0.75511785  0.20745586     0.38000
C1605       C  0.65806800  0.78748379  0.24891210     0.36400
C1606       C  0.69487902  0.71042266  0.13502418     0.36400
N1607       N  0.65060015  0.80572140  0.27053290    -0.38400
N1608       N  0.70344109  0.69714642  0.11121049    -0.38400
N1609       N  0.59109456  0.75854926  0.21369929    -0.37900
N1610       N  0.76046533  0.72570587  0.17667678    -0.37900
C1611       C  0.64867594  0.55098597  0.06479100    -0.04500
C1612       C  0.65458090  0.54913270  0.03110345    -0.01600
C1613       C  0.67860403  0.52930774  0.01966700     0.03400
C1614       C  0.69535572  0.50779655  0.04123654    -0.04500
C1615       C  0.68942288  0.50910117  0.07484862    -0.01600
C1616       C  0.66645666  0.53124467  0.08672064     0.03300
C1617       C  0.63626733  0.56813157  0.00791909     0.38000
C1618       C  0.70659640  0.48732702  0.09699658     0.38000
C1619       C  0.66041838  0.53262735  0.12135904     0.36400
C1620       C  0.67922028  0.52845900  0.48379901     0.36400
N1621       N  0.65553675  0.53367958  0.14899456    -0.38400
N1622       N  0.68413612  0.52978683  0.45619579    -0.38400
N1623       N  0.72036636  0.47004234  0.11472188    -0.37900
N1624       N  0.61442069  0.57873358  0.49003480    -0.37900
C1625       C  0.29329778  0.75409006  0.49529385    -0.04500
C1626       C  0.30884044  0.72339468  0.48304021    -0.01600
C1627       C  0.33928329  0.72582730  0.47827198     0.03400
C1628       C  0.35464305  0.75784084  0.48809780    -0.04500
C1629       C  0.33981995  0.78526325  0.50586007    -0.01600
C1630       C  0.30926683  0.78427627  0.50839596     0.03300
C1631       C  0.29391863  0.68874815  0.47691078     0.38000
C1632       C  0.35614443  0.81466854  0.52158755     0.38000
C1633       C  0.29374330  0.82434134  0.01583945     0.36400
C1634       C  0.35446732  0.69640838  0.46150862     0.36400
N1635       N  0.28175764  0.85053191  0.02460064    -0.38400
N1636       N  0.36656045  0.67299884  0.44798793    -0.38400
N1637       N  0.36881336  0.83770484  0.53521270    -0.37900
N1638       N  0.28245875  0.66058384  0.47283222    -0.37900
C1639       C  0.19768934  0.72910459  0.44083668    -0.04500
C1640       C  0.20583816  0.69494230  0.42751536    -0.01600
C1641       C  0.18452020  0.66756678  0.42166299     0.03400
C1642       C  0.15451291  0.67598225  0.42517981    -0.04500
C1643       C  0.14657135  0.71285308  0.43132749    -0.01600
C1644       C  0.16824113  0.73949009  0.43827726     0.03300
C1645       C  0.23576514  0.68851303  0.41840911     0.38000
C1646       C  0.11624312  0.72332814  0.43110929     0.38000
C1647       C  0.16054951  0.77793654  0.44158958     0.36400
C1648       C  0.19408314  0.63016562  0.41537791     0.36400
N1649       N  0.15908746  0.81317968  0.93390580    -0.38400
N1650       N  0.20220122  0.60042846  0.41097430    -0.38400
N1651       N  0.09202894  0.73164486  0.43104853    -0.37900
N1652       N  0.25933817  0.68367490  0.40968385    -0.37900
C1653       C  0.24545305  0.01380136  0.50199311    -0.04500
C1654       C  0.22779179  0.98370672  0.49129825    -0.01600
C1655       C  0.19748713  0.98815313  0.48643350     0.03400
C1656       C  0.18433502  0.02268069  0.49197976    -0.04500
C1657       C  0.20339673  0.55573833  0.50238673    -0.01600
C1658       C  0.23138406  0.04707539  0.51120802     0.03300
C1659       C  0.24054535  0.94782553  0.48542269     0.38000
C1660       C  0.18982979  0.59105786  0.50902503     0.38000
C1661       C  0.25004045  0.58332193  0.51983851     0.36400
C1662       C  0.18014595  0.95757096  0.47407786     0.36400
N1663       N  0.26287633  0.60848044  0.52994577    -0.38400
N1664       N  0.16632022  0.93306024  0.46438788    -0.38400
N1665       N  0.17912256  0.61928852  0.51409595    -0.37900
N1666       N  0.25066757  0.91916956  0.48071583    -0.37900
C1667       C  0.74327285  0.01191504  0.24971519    -0.04500
C1668       C  0.72667456  0.98022978  0.25825962    -0.01600
C1669       C  0.69638982  0.98284547  0.26389660     0.03400
C1670       C  0.68218064  0.01692112  0.26043026    -0.04500
C1671       C  0.69791435  0.04711534  0.24750989    -0.01600
C1672       C  0.72823613  0.04485021  0.24242906     0.03300
C1673       C  0.74060734  0.94470478  0.26140239     0.38000
C1674       C  0.68292065  0.08122308  0.24049544     0.38000
C1675       C  0.74383694  0.07736260  0.23140525     0.37200
C1676       C  0.68041852  0.95112712  0.27593182     0.36400
N1677       N  0.75608922  0.10336544  0.22245111    -0.38400
N1678       N  0.66774966  0.92587785  0.28576337    -0.38400
N1679       N  0.66879620  0.60604117  0.23359260    -0.37900
N1680       N  0.75166483  0.91632100  0.26383971    -0.37900
C1681       C  0.88432533  0.92014335  0.31256097    -0.04500
C1682       C  0.86795893  0.94274675  0.33386512    -0.01600
C1683       C  0.84447050  0.96346274  0.32170218     0.03400
C1684       C  0.83678525  0.96057412  0.28859917    -0.04500
C1685       C  0.85160748  0.93551524  0.26806161    -0.01600
C1686       C  0.87564044  0.91611234  0.27973431     0.03300
C1687       C  0.87596787  0.94577089  0.36790580     0.38000
C1688       C  0.84275067  0.93075416  0.23427659     0.38000
C1689       C  0.89128989  0.89167130  0.25780105     0.36400
C1690       C  0.82882549  0.98861151  0.34279042     0.36400
N1691       N  0.90399227  0.87241868  0.24039061    -0.38400
N1692       N  0.81619650  0.00866295  0.35954255    -0.38400
N1693       N  0.83582528  0.92701834  0.20735622    -0.37900
N1694       N  0.88233440  0.94824407  0.39509632    -0.37900
C1695       C  0.85627445  0.76059697  0.27185561    -0.04500
C1696       C  0.84283731  0.73689698  0.29435902    -0.01600
C1697       C  0.81225111  0.73279177  0.29502060     0.03400
C1698       C  0.79439088  0.75104921  0.27173099    -0.04500
C1699       C  0.80874761  0.77242072  0.24730359    -0.01600
C1700       C  0.83932284  0.77697457  0.24758125     0.03300
C1701       C  0.86054464  0.71778221  0.31805143     0.38000
C1702       C  0.79261718  0.79190751  0.22255426     0.38000
C1703       C  0.85365490  0.79870488  0.22267519     0.36400
C1704       C  0.79995337  0.71095776  0.32114831     0.36400
N1705       N  0.86509655  0.81562971  0.20257259    -0.38400
N1706       N  0.79098138  0.69395603  0.34271571    -0.38400
N1707       N  0.78020758  0.80770892  0.20259917    -0.37900
N1708       N  0.87452215  0.70211506  0.33673180    -0.37900
C1709       C  0.29074873  0.47099896  0.23731680    -0.04500
C1710       C  0.30978932  0.50055581  0.22995974    -0.01600
C1711       C  0.33964881  0.99606420  0.22738687     0.03400
C1712       C  0.35153597  0.96156336  0.23554839    -0.04500
C1713       C  0.33312180  0.43220444  0.24772881    -0.01600
C1714       C  0.30280390  0.43750012  0.24827704     0.03300
C1715       C  0.29843766  0.53734752  0.22614712     0.38000
C1716       C  0.34512054  0.39780946  0.25934075     0.38000
C1717       C  0.28408461  0.40808456  0.25996314     0.36400
C1718       C  0.35829142  0.02492563  0.21457686     0.36400
N1719       N  0.26918307  0.38489758  0.26982483    -0.38400
N1720       N  0.37314306  0.04782981  0.20410316    -0.38400
N1721       N  0.35464661  0.37044769  0.26872927    -0.37900
N1722       N  0.28919425  0.06756537  0.22031173    -0.37900
C1723       C  0.19806264  0.47461891  0.29490077    -0.04500
C1724       C  0.20191737  0.50885436  0.31070087    -0.01600
C1725       C  0.17921838  0.52364022  0.32903356     0.03400
C1726       C  0.15447303  0.50181908  0.33652603    -0.04500
C1727       C  0.15157204  0.46616315  0.32285648    -0.01600
C1728       C  0.17290931  0.45318745  0.30097500     0.03300
C1729       C  0.22811594  0.53071497  0.30547770     0.38000
C1730       C  0.12657039  0.44333340  0.33056568     0.38000
C1731       C  0.16863056  0.41854640  0.28370860     0.36400
C1732       C  0.18002941  0.56279870  0.33691761     0.36400
N1733       N  0.16778359  0.88840056  0.27368356    -0.38400
N1734       N  0.18041346  0.59415735  0.34229159    -0.38400
N1735       N  0.10968958  0.92191953  0.34152570    -0.37900
N1736       N  0.24903460  0.54800825  0.30152698    -0.37900
C1737       C  0.15695427  0.75013959  0.09654085    -0.04500
C1738       C  0.14813629  0.77277886  0.07049754    -0.01600
C1739       C  0.16893396  0.78585481  0.04803371     0.03400
C1740       C  0.19821602  0.77468437  0.05021718    -0.04500
C1741       C  0.20782340  0.75895269  0.07958750    -0.01600
C1742       C  0.18735531  0.74779630  0.10315297     0.03300
C1743       C  0.11791398  0.78263164  0.06630872     0.38000
C1744       C  0.23846888  0.75228395  0.08524727     0.38000
C1745       C  0.19813566  0.73369543  0.13387564     0.36400
C1746       C  0.16027121  0.81112025  0.02274707     0.36400
N1747       N  0.20699203  0.72258810  0.15824886    -0.38400
N1748       N  0.15315686  0.83199594  0.00322693    -0.38400
N1749       N  0.26284145  0.74688872  0.09001205    -0.37900
N1750       N  0.09385298  0.79074499  0.06288649    -0.37900
C1751       C  0.15266593  0.56024738  0.16840571    -0.04500
C1752       C  0.18272366  0.56846037  0.16375743    -0.01600
C1753       C  0.20415282  0.54224593  0.17178396     0.03400
C1754       C  0.19587615  0.50786351  0.18466297    -0.04500
C1755       C  0.16616115  0.49727378  0.18249068    -0.01600
C1756       C  0.14461329  0.52359011  0.17551649     0.03300
C1757       C  0.19212435  0.60458062  0.15276429     0.38000
C1758       C  0.15764262  0.45953283  0.18944659     0.38000
C1759       C  0.11418577  0.51297096  0.17626032     0.36400
C1760       C  0.23457070  0.55140014  0.16766405     0.36400
N1761       N  0.08991054  0.50446839  0.17691520    -0.38400
N1762       N  0.25866558  0.55921810  0.16340447    -0.38400
N1763       N  0.15087200  0.42944554  0.19501182    -0.37900
N1764       N  0.19975941  0.63323881  0.14381628    -0.37900
C1765       C  0.24232149  0.71873464  0.24686112    -0.04500
C1766       C  0.22478908  0.75014234  0.24265053    -0.01600
C1767       C  0.19431299  0.74623445  0.23935513     0.03400
C1768       C  0.18127651  0.71089555  0.24128952    -0.04500
C1769       C  0.19841037  0.68080989  0.25133684    -0.01600
C1770       C  0.22880258  0.68454158  0.25358869     0.03300
C1771       C  0.23792869  0.78653643  0.24318140     0.38000
C1772       C  0.18481406  0.64538588  0.25804653     0.38000
C1773       C  0.24613266  0.65263393  0.26156020     0.36400
C1774       C  0.17679675  0.77825666  0.23242733     0.36400
N1775       N  0.25994470  0.62727404  0.26818061    -0.38400
N1776       N  0.16288536  0.80393612  0.22706504    -0.38400
N1777       N  0.17398633  0.61713892  0.26325546    -0.37900
N1778       N  0.24818342  0.81573156  0.24435424    -0.37900
C1779       C  0.74478291  0.72744453  0.02276055    -0.04500
C1780       C  0.72715970  0.75580030  0.03568270    -0.01600
C1781       C  0.69690762  0.74990628  0.03964594     0.03400
C1782       C  0.68397905  0.71641100  0.02920291    -0.04500
C1783       C  0.70120249  0.68988589  0.01320066    -0.01600
C1784       C  0.73147894  0.69474767  0.01091196     0.03300
C1785       C  0.73988751  0.79128453  0.04406692     0.38000
C1786       C  0.68777028  0.65710049  0.99932891     0.38000
C1787       C  0.74907574  0.66500155  0.99789660     0.36400
C1788       C  0.67932795  0.77747568  0.05587813     0.36400
N1789       N  0.76371836  0.63576663  0.49071067    -0.38400
N1790       N  0.66524501  0.79939057  0.06889134    -0.38400
N1791       N  0.67749657  0.63106992  0.98751918    -0.37900
N1792       N  0.74976207  0.81991018  0.05033586    -0.37900
C1793       C  0.83127603  0.72617074  0.45184197    -0.04500
C1794       C  0.82378755  0.75288236  0.42879483    -0.01600
C1795       C  0.84448265  0.76458054  0.40585676     0.03400
C1796       C  0.87321359  0.74982575  0.40629866    -0.04500
C1797       C  0.87871612  0.71889219  0.42603409    -0.01600
C1798       C  0.85762923  0.70701542  0.44858656     0.03300
C1799       C  0.79562294  0.77068247  0.43030255     0.38000
C1800       C  0.90573438  0.69888974  0.42302070     0.38000
C1801       C  0.86293259  0.67514727  0.46873738     0.36400
C1802       C  0.83591904  0.79306973  0.38314535     0.36400
N1803       N  0.86696434  0.64930459  0.48437655    -0.38400
N1804       N  0.82882953  0.81553405  0.36499833    -0.38400
N1805       N  0.92720373  0.68273137  0.42054396    -0.37900
N1806       N  0.77323425  0.78492638  0.43139244    -0.37900
C1807       C  0.83979265  0.03998552  0.19970162    -0.04500
C1808       C  0.86982563  0.04533191  0.20549534    -0.01600
C1809       C  0.89049812  0.02701568  0.18587726     0.03400
C1810       C  0.88106137  0.00506044  0.15911036    -0.04500
C1811       C  0.85141479  0.00811527  0.14913752    -0.01600
C1812       C  0.83118170  0.02677938  0.16896242     0.03300
C1813       C  0.87906005  0.06584640  0.23420793     0.38000
C1814       C  0.84071210  0.99041521  0.11965068     0.38000
C1815       C  0.80103322  0.02948943  0.15900920     0.36400
C1816       C  0.92087815  0.02874526  0.19510281     0.36400
N1817       N  0.77702671  0.03182471  0.15098265    -0.38400
N1818       N  0.94508432  0.03018925  0.20264616    -0.38400
N1819       N  0.83153831  0.97574849  0.09670655    -0.37900
N1820       N  0.88644966  0.08208212  0.25716093    -0.37900
C1821       C  0.84395792  0.75466417  0.06846311    -0.04500
C1822       C  0.87381537  0.74595494  0.06563136    -0.01600
C1823       C  0.89520960  0.77152465  0.07578015     0.03400
C1824       C  0.88686925  0.80511247  0.09045517    -0.04500
C1825       C  0.85750378  0.80875998  0.10097528    -0.01600
C1826       C  0.83610134  0.78340454  0.08993741     0.03300
C1827       C  0.87366579  0.70875214  0.55799873     0.38000
C1828       C  0.84860092  0.83930473  0.12162711     0.38000
C1829       C  0.80620156  0.78749421  0.10028604     0.36400
C1830       C  0.92566722  0.76352231  0.07028888     0.36400
N1831       N  0.78255346  0.79066606  0.10937306    -0.38400
N1832       N  0.94993988  0.75714580  0.06581156    -0.38400
N1833       N  0.84136793  0.86347467  0.13824043    -0.37900
N1834       N  0.87904708  0.67834803  0.55202705    -0.37900
C1835       C  0.84874139  0.95051075  0.01727136    -0.04500
C1836       C  0.83676649  0.42376249  0.00158208    -0.01600
C1837       C  0.80283806  0.42291373  0.50290703     0.03400
C1838       C  0.79098430  0.45837557  0.00466689    -0.04500
C1839       C  0.80736459  0.49001368  0.01442331    -0.01600
C1840       C  0.83786916  0.48791238  0.01916977     0.03300
C1841       C  0.84868594  0.88471280  0.49850240     0.38000
C1842       C  0.79299918  0.52495358  0.01993673     0.38000
C1843       C  0.84980003  0.01722594  0.03024689     0.36400
C1844       C  0.78707683  0.38972104  0.49345155     0.36400
N1845       N  0.86237022  0.04338008  0.03862092    -0.38400
N1846       N  0.77468782  0.36323580  0.48558592    -0.38400
N1847       N  0.78162076  0.55286807  0.02445258    -0.37900
N1848       N  0.86046541  0.85703276  0.49417864    -0.37900
C1849       C  0.03437568  0.59830971  0.59006779     0.81000
N1850       N  0.04518244  0.60258177  0.55932668    -0.77300
C1851       C  0.03750253  0.57873479  0.53502496     0.83500
N1852       N  0.01874664  0.55068094  0.54155457    -0.77200
C1853       C  0.00757363  0.54597531  0.57184681     0.83600
N1854       N  0.01608793  0.56928100  0.59642698    -0.78900
O1855       O  0.96758124  0.93495056  0.50671486    -0.77700
C1856       C  0.87820209  0.94461184  0.53232640     0.83400
O1857       O  0.98956526  0.99320974  0.60240030    -0.78800
O1858       O  0.88998425  0.94861325  0.62555820    -0.80300
O1859       O  0.92647116  0.83872666  0.56567949    -0.80100
O1860       O  0.98354699  0.87979832  0.52254515    -0.78700
Zn1861     Zn  0.94396817  0.95840117  0.54281373     1.55700
O1862       O  0.90356473  0.86126867  0.60845431    -0.80100
Cd1863     Cd  0.96196319  0.87617439  0.56837127     1.59700
Cd1864     Cd  0.96252530  0.94979498  0.61840583     1.59600
O1865       O  0.98706375  0.85944681  0.60870161    -0.80100
O1866       O  0.94565036  0.92580005  0.57915124    -1.90600
Cd1867     Cd  0.90607411  0.91355144  0.59192375     1.59900
O1868       O  0.98193462  0.90581639  0.64496706    -0.80000
O1869       O  0.87882027  0.91900648  0.55325766    -0.78700
C1870       C  0.98644745  0.01321602  0.57702770     0.83800
C1871       C  0.98234396  0.90583424  0.50158581     0.83500
O1872       O  0.90055927  0.96531803  0.52724998    -0.77700
C1873       C  0.90600965  0.83658598  0.58674783     0.84300
O1874       O  0.96786496  0.00501384  0.55473551    -0.77700
C1875       C  0.99023844  0.87293164  0.63750636     0.84400
C1876       C  0.90148221  0.97367685  0.64297530     0.84800
O1877       O  0.92912700  0.97743915  0.64406961    -0.80200
C1878       C  0.77341167  0.73026198  0.51447713     0.81000
N1879       N  0.78936218  0.74074905  0.54112002    -0.77300
C1880       C  0.81888816  0.74314425  0.53881740     0.83500
N1881       N  0.83509365  0.73539469  0.01265698    -0.77200
C1882       C  0.81836082  0.72791255  0.98650383     0.83600
N1883       N  0.78915804  0.72657282  0.98993759    -0.78900
C1884       C  0.00202921  0.84866722  0.66363248     0.81000
N1885       N  0.01962542  0.81927593  0.65629205    -0.77300
C1886       C  0.02853587  0.79607827  0.68042686     0.83500
N1887       N  0.01863544  0.80148694  0.71114163    -0.77200
C1888       C  0.00068815  0.82964209  0.71873129     0.83600
N1889       N  0.99236202  0.85325362  0.69491592    -0.78900
O1890       O  0.06794358  0.68641545  0.74829719    -0.77700
C1891       C  0.15418576  0.69911138  0.72123828     0.83400
O1892       O  0.04592819  0.74415674  0.64887209    -0.78800
O1893       O  0.14557565  0.69995037  0.63466799    -0.80300
O1894       O  0.10919206  0.58797127  0.68776175    -0.80100
O1895       O  0.05317420  0.62956082  0.73395351    -0.78700
Zn1896     Zn  0.08941493  0.71008980  0.71073422     1.55700
O1897       O  0.13312729  0.61223421  0.64670070    -0.80100
Cd1898     Cd  0.07328872  0.62545142  0.68659778     1.59700
Cd1899     Cd  0.07329239  0.69990688  0.63546879     1.59600
O1900       O  0.04799345  0.60931735  0.64557263    -0.80100
O1901       O  0.08801331  0.67582394  0.67544477    -1.90600
Cd1902     Cd  0.12772449  0.66367522  0.66497907     1.59900
O1903       O  0.05437036  0.65528782  0.60935717    -0.80000
O1904       O  0.15205876  0.66902654  0.70543167    -0.78700
C1905       C  0.04787488  0.76388154  0.67484419     0.83800
C1906       C  0.05442708  0.65642498  0.75465076     0.83500
O1907       O  0.13258900  0.72115876  0.72340669    -0.77700
C1908       C  0.13011136  0.58661520  0.66710915     0.84300
O1909       O  0.06500309  0.75511579  0.69812721    -0.77700
C1910       C  0.04561892  0.62257525  0.61670307     0.84400
C1911       C  0.13570061  0.72335412  0.61510725     0.84800
O1912       O  0.10826862  0.72598696  0.61078225    -0.80200
C1913       C  0.25981458  0.47695117  0.73835875     0.81000
N1914       N  0.24519364  0.48783148  0.71094040    -0.77300
C1915       C  0.21549312  0.48997937  0.71155199     0.83500
N1916       N  0.20140966  0.48260869  0.73954985    -0.77200
C1917       C  0.21556612  0.47289271  0.76668068     0.83600
N1918       N  0.24484445  0.47044379  0.76624686    -0.78900
C1919       C  0.03610610  0.63705951  0.84181495     0.81000
N1920       N  0.01846573  0.66639851  0.84848467    -0.77300
C1921       C  0.01026812  0.68945939  0.82413897     0.83500
N1922       N  0.02087012  0.68387740  0.79359061    -0.77200
C1923       C  0.03883152  0.65546223  0.78646238     0.83600
N1924       N  0.04642386  0.63195455  0.81073358    -0.78900
O1925       O  0.90819341  0.75615435  0.78041204    -0.77700
C1926       C  0.98528094  0.82763672  0.75017013     0.83400
O1927       O  0.98867212  0.73823437  0.85680111    -0.78800
O1928       O  0.98967615  0.87406128  0.86022445    -0.80300
O1929       O  0.90200715  0.87102118  0.84716346    -0.80100
O1930       O  0.88774161  0.81031645  0.78845710    -0.78700
Zn1931     Zn  0.94996912  0.77347640  0.79209148     1.55700
O1932       O  0.93240771  0.89355816  0.81075820    -0.80100
Cd1933     Cd  0.90879010  0.81888473  0.83140734     1.59700
Cd1934     Cd  0.96203061  0.78447612  0.86918650     1.59600
O1935       O  0.88917052  0.78511005  0.86247489    -0.80100
O1936       O  0.94965610  0.80743764  0.82762776    -1.90600
Cd1937     Cd  0.96690367  0.85668194  0.81789104     1.59900
O1938       O  0.92459334  0.76581462  0.89460343    -0.80000
O1939       O  0.98872405  0.85240295  0.77240418    -0.78700
C1940       C  0.99031564  0.72103018  0.82934579     0.83800
C1941       C  0.88609270  0.77716625  0.77866308     0.83500
O1942       O  0.96992835  0.79864629  0.75467436    -0.77700
C1943       C  0.90844069  0.89520133  0.82641595     0.84300
O1944       O  0.97584417  0.73131920  0.80456175    -0.77700
C1945       C  0.89756534  0.76819991  0.88746251     0.84400
C1946       C  0.99105898  0.86093629  0.88918036     0.84800
O1947       O  0.98185733  0.82830111  0.89601938    -0.80200
C1948       C  0.77544812  0.00704557  0.75418307     0.81000
N1949       N  0.78957314  0.98799382  0.77794552    -0.77300
C1950       C  0.81903241  0.98917124  0.77968556     0.83500
N1951       N  0.83400937  0.00868047  0.75758899    -0.77200
C1952       C  0.82103217  0.02556814  0.73253667     0.83600
N1953       N  0.79146151  0.02457445  0.73078350    -0.78900
C1954       C  0.00179281  0.88535750  0.91615597     0.81000
N1955       N  0.99069037  0.88127134  0.94689924    -0.77300
C1956       C  0.99791863  0.90562142  0.97112634     0.83500
N1957       N  0.01643901  0.93388572  0.96439347    -0.77200
C1958       C  0.02780613  0.93850060  0.93414719     0.83600
N1959       N  0.01984547  0.91464885  0.90976722    -0.78900
O1960       O  0.13327801  0.01418144  0.97658131    -0.77700
C1961       C  0.05435695  0.58126828  0.00492077     0.83400
O1962       O  0.04569007  0.98948677  0.90230865    -0.78800
O1963       O  0.05076629  0.62781949  0.89708587    -0.80300
O1964       O  0.13635500  0.62381272  0.90205272    -0.80100
O1965       O  0.15584974  0.56810560  0.96012782    -0.78700
Zn1966     Zn  0.09196199  0.52756298  0.96406423     1.55700
O1967       O  0.11075797  0.64958949  0.94134212    -0.80100
Cd1968     Cd  0.13067671  0.57264007  0.92005878     1.59700
Cd1969     Cd  0.07470374  0.53767230  0.88811477     1.59600
O1970       O  0.14715968  0.53718599  0.88811344    -0.80100
O1971       O  0.09048385  0.56127879  0.92847826    -1.90600
Cd1972     Cd  0.07515338  0.61162477  0.93836010     1.59900
O1973       O  0.10892965  0.51827387  0.85922042    -0.80000
O1974       O  0.05334773  0.60744988  0.98402450    -0.78700
C1975       C  0.04741820  0.97068925  0.92860101     0.83800
C1976       C  0.15565697  0.03533019  0.97359441     0.83500
O1977       O  0.06892268  0.55192569  0.99993718    -0.77700
C1978       C  0.13251785  0.65014265  0.92186540     0.84300
O1979       O  0.06464344  0.98013793  0.95179578    -0.77700
C1980       C  0.13631146  0.52034042  0.86391225     0.84400
C1981       C  0.04715295  0.61348575  0.86861329     0.84800
O1982       O  0.05451707  0.58022496  0.86192298    -0.80200
C1983       C  0.26074894  0.76036513  0.99371708     0.81000
N1984       N  0.24592117  0.76632351  0.52143356    -0.77300
C1985       C  0.21648970  0.76823555  0.52127495     0.83500
N1986       N  0.20201044  0.75840595  0.49391239    -0.77200
C1987       C  0.21665934  0.75008758  0.96532762     0.83600
N1988       N  0.24625314  0.74912523  0.96633284    -0.78900
C1989       C  0.50074891  0.84390096  0.58977975     0.81000
N1990       N  0.49128719  0.84735591  0.55831917    -0.77300
C1991       C  0.49950119  0.82254684  0.53494484     0.83500
N1992       N  0.51713408  0.79443497  0.54324812    -0.77200
C1993       C  0.52680875  0.79016380  0.57413250     0.83600
N1994       N  0.51805107  0.81455764  0.59771661    -0.78900
O1995       O  0.62959345  0.71665339  0.53260613    -0.77700
C1996       C  0.55115879  0.64849647  0.50342864     0.83400
O1997       O  0.54509047  0.74044772  0.60744139    -0.78800
O1998       O  0.54598447  0.60656025  0.61399430    -0.80300
O1999       O  0.63416593  0.60117666  0.59872064    -0.80100
O2000       O  0.65414783  0.67245407  0.55775482    -0.78700
Zn2001     Zn  0.58753590  0.70296952  0.54566628     1.55700
O2002       O  0.60051741  0.58337745  0.56347983    -0.80100
Cd2003     Cd  0.62712922  0.65606158  0.59367524     1.59700
Cd2004     Cd  0.57240396  0.69621822  0.62165615     1.59600
O2005       O  0.64328732  0.68332675  0.63274406    -0.80100
O2006       O  0.58735103  0.67047613  0.58213544    -1.90600
Cd2007     Cd  0.56818566  0.62242705  0.57160688     1.59900
O2008       O  0.60799516  0.72184576  0.64537091    -0.80000
O2009       O  0.54634232  0.62526719  0.52622016    -0.78700
C2010       C  0.54606027  0.75810711  0.58049317     0.83800
C2011       C  0.65316506  0.69933259  0.53822703     0.83500
O2012       O  0.56721637  0.67697723  0.50792358    -0.77700
C2013       C  0.62500419  0.57864660  0.57732740     0.84300
O2014       O  0.56236668  0.74752226  0.55698203    -0.77700
C2015       C  0.63450077  0.71190938  0.64750833     0.84400
C2016       C  0.54533738  0.61980824  0.64309873     0.84800
O2017       O  0.55436149  0.65265683  0.65003525    -0.80200
C2018       C  0.75529282  0.45789093  0.50468464     0.81000
N2019       N  0.73932055  0.47851366  0.52620692    -0.77300
C2020       C  0.70976232  0.47795004  0.52443555     0.83500
N2021       N  0.69933933  0.45712549  0.00457330    -0.77200
C2022       C  0.71336357  0.43872778  0.98089370     0.83600
N2023       N  0.74298875  0.43984125  0.98057778    -0.78900
C2024       C  0.53540667  0.59487110  0.66961689     0.81000
N2025       N  0.54682968  0.59823914  0.70037869    -0.77300
C2026       C  0.54019652  0.57273084  0.72359160     0.83500
N2027       N  0.52218561  0.54417855  0.71576339    -0.77200
C2028       C  0.51078927  0.54023887  0.68546783     0.83600
N2029       N  0.51791967  0.56528037  0.66220393    -0.78900
O2030       O  0.40226367  0.96795918  0.72604963    -0.77700
C2031       C  0.47952535  0.89876205  0.75356300     0.83400
O2032       O  0.49116245  0.98906019  0.65303886    -0.78800
O2033       O  0.48555565  0.85570100  0.64453940    -0.80300
O2034       O  0.39887848  0.86183394  0.64604616    -0.80100
O2035       O  0.37996742  0.91944622  0.70379757    -0.78700
Zn2036     Zn  0.44512160  0.95519246  0.71248925     1.55700
O2037       O  0.42391770  0.83562650  0.68533751    -0.80100
Cd2038     Cd  0.40562052  0.91323442  0.66413429     1.59700
Cd2039     Cd  0.46274291  0.94682712  0.63634877     1.59600
O2040       O  0.39042380  0.95143218  0.63362113    -0.80100
O2041       O  0.44582122  0.92279008  0.67549807    -1.90600
Cd2042     Cd  0.46012038  0.87213210  0.68495228     1.59900
O2043       O  0.42957935  0.97717254  0.61253288    -0.80000
O2044       O  0.48045502  0.87325582  0.73169998    -0.78700
C2045       C  0.48919198  0.00816366  0.67939918     0.83800
C2046       C  0.37944119  0.94785597  0.72202796     0.83500
O2047       O  0.46613289  0.92898425  0.74886966    -0.77700
C2048       C  0.40257191  0.83522478  0.66531577     0.84300
O2049       O  0.47116687  0.99965402  0.70197291    -0.77700
C2050       C  0.40193560  0.97595239  0.61601964     0.84400
C2051       C  0.48894144  0.86890194  0.61583530     0.84800
O2052       O  0.48102556  0.90195516  0.60861553    -0.80200
C2053       C  0.27707423  0.72123757  0.73741355     0.81000
N2054       N  0.29091151  0.73331510  0.70996103    -0.77300
C2055       C  0.32055606  0.73426275  0.70882064     0.83500
N2056       N  0.33576905  0.72436266  0.73552785    -0.77200
C2057       C  0.32242955  0.71302727  0.76301545     0.83600
N2058       N  0.29301454  0.71153558  0.76379477    -0.78900
C2059       C  0.53658783  0.62468771  0.91764045     0.81000
N2060       N  0.51879662  0.65356757  0.90972082    -0.77300
C2061       C  0.50994824  0.67802206  0.93324923     0.83500
N2062       N  0.52010828  0.67439503  0.96400944    -0.77200
C2063       C  0.53826947  0.64682612  0.97220370     0.83600
N2064       N  0.54647689  0.62185401  0.94898134    -0.78900
O2065       O  0.46976408  0.78986618  0.99867520    -0.77700
C2066       C  0.38244987  0.77077482  0.97095298     0.83400
O2067       O  0.49211845  0.72828415  0.90054694    -0.78800
O2068       O  0.39394551  0.78230467  0.87486139    -0.80300
O2069       O  0.43387648  0.88431639  0.94202966    -0.80100
O2070       O  0.48855700  0.84326117  0.98129526    -0.78700
Zn2071     Zn  0.44817485  0.76428764  0.96171710     1.55700
O2072       O  0.40155255  0.86508047  0.90597865    -0.80100
Cd2073     Cd  0.46706043  0.84580144  0.93561545     1.59700
Cd2074     Cd  0.46468439  0.77195512  0.88595118     1.59600
O2075       O  0.49006639  0.86192376  0.89382245    -0.80100
O2076       O  0.44872640  0.79713702  0.92528137    -1.90600
Cd2077     Cd  0.40896445  0.81074934  0.91339011     1.59900
O2078       O  0.48262377  0.81565947  0.85776917    -0.80000
O2079       O  0.38171695  0.79608600  0.94984154    -0.78700
C2080       C  0.49029262  0.70966434  0.92692326     0.83800
C2081       C  0.48503571  0.81895387  0.00350239     0.83500
O2082       O  0.40570609  0.75275577  0.97679577    -0.77700
C2083       C  0.40965834  0.88825633  0.92732420     0.84300
O2084       O  0.47303710  0.71918039  0.94999089    -0.77700
C2085       C  0.49125435  0.84864361  0.86477831     0.84400
C2086       C  0.40339685  0.75447188  0.85959592     0.84800
O2087       O  0.43010952  0.74549671  0.86142957    -0.80200
C2088       C  0.27941865  0.01307545  0.99728226     0.81000
N2089       N  0.29369365  0.02888695  0.52681102    -0.77300
C2090       C  0.32322430  0.02750472  0.52748709     0.83500
N2091       N  0.33693716  0.00753303  0.50461410    -0.77200
C2092       C  0.32428986  0.99008594  0.97773715     0.83600
N2093       N  0.29469957  0.99135331  0.97584789    -0.78900
C2094       C  0.50118868  0.87362761  0.83830777     0.81000
N2095       N  0.51899596  0.90297554  0.84557713    -0.77300
C2096       C  0.52604638  0.92798602  0.82222924     0.83500
N2097       N  0.51423893  0.92436957  0.79212904    -0.77200
C2098       C  0.49592992  0.89610650  0.78452977     0.83600
N2099       N  0.48942559  0.87054609  0.80771789    -0.78900
O2100       O  0.56861227  0.53887766  0.75970156    -0.77700
C2101       C  0.65418240  0.01818718  0.78037869     0.83400
O2102       O  0.54454163  0.97865780  0.85466644    -0.78800
O2103       O  0.64704623  0.51131964  0.87129933    -0.80300
O2104       O  0.61510392  0.63062816  0.82435105    -0.80100
O2105       O  0.55757878  0.59607229  0.77588514    -0.78700
Zn2106     Zn  0.59046615  0.51240675  0.79476802     1.55700
O2107       O  0.64002773  0.60148622  0.86229521    -0.80100
Cd2108     Cd  0.57786492  0.59574341  0.82306100     1.59700
Cd2109     Cd  0.57442322  0.52095788  0.87172856     1.59600
O2110       O  0.55213073  0.61260003  0.86304978    -0.80100
O2111       O  0.59117377  0.54436495  0.83215846    -1.90600
Cd2112     Cd  0.63194679  0.55136868  0.84217945     1.59900
O2113       O  0.55615473  0.56636495  0.89905402    -0.80000
O2114       O  0.65563198  0.54755769  0.80060609    -0.78700
C2115       C  0.54620105  0.95934746  0.82836378     0.83800
C2116       C  0.55667430  0.56990035  0.75458460     0.83500
O2117       O  0.63108898  0.99858055  0.77697571    -0.77700
C2118       C  0.63677682  0.62895109  0.84388299     0.84300
O2119       O  0.56405531  0.96739639  0.80555414    -0.77700
C2120       C  0.54844194  0.59947911  0.89173034     0.84400
C2121       C  0.63513467  0.48939213  0.89115858     0.84800
O2122       O  0.60766076  0.49096294  0.89618843    -0.80200
C2123       C  0.76202997  0.74902731  0.77030119     0.81000
N2124       N  0.74595241  0.75749568  0.74344506    -0.77300
C2125       C  0.71655955  0.75312903  0.74332408     0.83500
N2126       N  0.70339405  0.73904980  0.76983734    -0.77200
C2127       C  0.71867168  0.72982494  0.79645727     0.83600
N2128       N  0.74796611  0.73462741  0.79661792    -0.78900
C2129       C  0.66080456  0.65629372  0.84191213    -0.04500
C2130       C  0.68915959  0.64397327  0.83428568    -0.01600
C2131       C  0.70997944  0.66897652  0.82224709     0.03400
C2132       C  0.70344654  0.70685267  0.82068520    -0.04500
C2133       C  0.67714533  0.71972213  0.83418902    -0.01600
C2134       C  0.65546878  0.69440279  0.84395410     0.03300
C2135       C  0.69667367  0.60529241  0.83669154     0.38000
C2136       C  0.67200681  0.75902135  0.83649407     0.38000
C2137       C  0.62776250  0.70739955  0.85599827     0.36400
C2138       C  0.73635329  0.65479475  0.80752765     0.36400
N2139       N  0.60571124  0.71775388  0.86585611    -0.38400
N2140       N  0.75702548  0.64294963  0.79544727    -0.38400
N2141       N  0.66809251  0.79041217  0.83868882    -0.37900
N2142       N  0.70337949  0.57474950  0.83901202    -0.37900
C2143       C  0.38836012  0.91640799  0.93865853    -0.04500
C2144       C  0.38525298  0.92243293  0.97251850    -0.01600
C2145       C  0.36099369  0.94117687  0.98460081     0.03400
C2146       C  0.34212718  0.96007734  0.96328938    -0.04500
C2147       C  0.34513247  0.95481530  0.92947539    -0.01600
C2148       C  0.36755184  0.93191976  0.91717740     0.03300
C2149       C  0.40661056  0.90896236  0.99554094     0.38000
C2150       C  0.32534237  0.97296518  0.90750203     0.38000
C2151       C  0.36949295  0.92518289  0.88240075     0.36400
C2152       C  0.35160498  0.93462029  0.52240330     0.36400
N2153       N  0.37083870  0.91960691  0.85465527    -0.38400
N2154       N  0.34687527  0.93302338  0.55003423    -0.38400
N2155       N  0.30945417  0.98733631  0.88994878    -0.37900
N2156       N  0.41784291  0.88677629  0.51513797    -0.37900
C2157       C  0.38186547  0.73306289  0.83960245    -0.04500
C2158       C  0.39035752  0.71058423  0.81304172    -0.01600
C2159       C  0.36925931  0.69792082  0.79062375     0.03400
C2160       C  0.34024048  0.71004484  0.79306225    -0.04500
C2161       C  0.33098537  0.72668645  0.82240624    -0.01600
C2162       C  0.35162578  0.73684061  0.84615152     0.03300
C2163       C  0.42059003  0.70134793  0.80779635     0.38000
C2164       C  0.30065605  0.73565827  0.82772131     0.38000
C2165       C  0.34135638  0.75170166  0.87703522     0.36400
C2166       C  0.37722911  0.67176995  0.76540186     0.36400
N2167       N  0.33293742  0.76357223  0.90148737    -0.38400
N2168       N  0.38376392  0.64993575  0.74613936    -0.38400
N2169       N  0.27654240  0.74295722  0.83217365    -0.37900
N2170       N  0.44467411  0.69381053  0.80348522    -0.37900
C2171       C  0.38174137  0.00256839  0.59944843    -0.04500
C2172       C  0.35157660  0.00327739  0.60783300    -0.01600
C2173       C  0.33119621  0.01946285  0.58680435     0.03400
C2174       C  0.34061306  0.03510501  0.55737246    -0.04500
C2175       C  0.37061927  0.04273406  0.55350625    -0.01600
C2176       C  0.39124781  0.02610492  0.57414779     0.03300
C2177       C  0.34053391  0.98557896  0.63692346     0.38000
C2178       C  0.38023195  0.06438944  0.52592209     0.38000
C2179       C  0.42193093  0.03222619  0.56816145     0.36400
C2180       C  0.30036128  0.01563360  0.59364138     0.36400
N2181       N  0.44639446  0.03741931  0.56337095    -0.38400
N2182       N  0.27582518  0.01211335  0.59904016    -0.38400
N2183       N  0.38788635  0.08153978  0.50383996    -0.37900
N2184       N  0.33102542  0.97100601  0.65952694    -0.37900
C2185       C  0.38016164  0.80535463  0.66620807    -0.04500
C2186       C  0.35013109  0.81393724  0.66353846    -0.01600
C2187       C  0.32883543  0.78691724  0.67055244     0.03400
C2188       C  0.33736946  0.75231250  0.68219027    -0.04500
C2189       C  0.36651823  0.74164807  0.67752547    -0.01600
C2190       C  0.38811773  0.76831527  0.67092554     0.03300
C2191       C  0.34076661  0.85108649  0.65625796     0.38000
C2192       C  0.37392127  0.70299303  0.67896147     0.38000
C2193       C  0.41839454  0.75769913  0.66970514     0.36400
C2194       C  0.29841649  0.79448541  0.66504290     0.36400
N2195       N  0.44256853  0.74923740  0.66891110    -0.38400
N2196       N  0.27433492  0.80049717  0.65923960    -0.38400
N2197       N  0.37978997  0.67204878  0.67886526    -0.37900
N2198       N  0.33316196  0.88067379  0.65055971    -0.37900
C2199       C  0.69530717  0.42997874  0.95154215    -0.04500
C2200       C  0.66511078  0.42439781  0.95628069    -0.01600
C2201       C  0.64478081  0.44187385  0.93580880     0.03400
C2202       C  0.65463484  0.46266488  0.90880529    -0.04500
C2203       C  0.68447443  0.45885345  0.89959670    -0.01600
C2204       C  0.70462418  0.44259156  0.92098144     0.03300
C2205       C  0.65178517  0.89895616  0.98219381     0.38000
C2206       C  0.69536666  0.47282586  0.86889974     0.38000
C2207       C  0.73521546  0.44158514  0.91248778     0.36400
C2208       C  0.61144527  0.93602802  0.94149199     0.36400
N2209       N  0.75958855  0.44083039  0.90561739    -0.38400
N2210       N  0.58690409  0.93388780  0.94737610    -0.38400
N2211       N  0.70465364  0.48415396  0.84476528    -0.37900
N2212       N  0.64352583  0.88215923  0.00422304    -0.37900
C2213       C  0.69856616  0.75653697  0.71342430    -0.04500
C2214       C  0.70755246  0.74023152  0.68387313    -0.01600
C2215       C  0.68661560  0.72939895  0.66054255     0.03400
C2216       C  0.65640057  0.73312167  0.66737676    -0.04500
C2217       C  0.64813054  0.75539485  0.69418453    -0.01600
C2218       C  0.66932855  0.76771990  0.71666431     0.03300
C2219       C  0.73797658  0.73223157  0.67812012     0.38000
C2220       C  0.61792360  0.76449894  0.69976862     0.38000
C2221       C  0.66094577  0.79099859  0.74392272     0.36400
C2222       C  0.69653193  0.71406430  0.62971855     0.36400
N2223       N  0.65425376  0.80983084  0.76547384    -0.38400
N2224       N  0.70470641  0.70188923  0.60527619    -0.38400
N2225       N  0.59386468  0.77200050  0.70429284    -0.37900
N2226       N  0.76219095  0.72580226  0.67329452    -0.37900
C2227       C  0.64541205  0.55020462  0.56495589    -0.04500
C2228       C  0.64946337  0.54687926  0.53094657    -0.01600
C2229       C  0.67310894  0.52706979  0.51855361     0.03400
C2230       C  0.69115589  0.50656788  0.53956554    -0.04500
C2231       C  0.68702504  0.50916330  0.57347226    -0.01600
C2232       C  0.66457699  0.53157564  0.58621953     0.03300
C2233       C  0.62992427  0.56471467  0.50825043     0.38000
C2234       C  0.70555491  0.48851761  0.59509177     0.38000
C2235       C  0.66066589  0.53451888  0.62117700     0.36400
C2236       C  0.68600633  0.53083701  0.98524415     0.36400
N2237       N  0.65755137  0.53691110  0.64907645    -0.38400
N2238       N  0.69189538  0.53203554  0.95787455    -0.38400
N2239       N  0.72040141  0.47213577  0.61239567    -0.37900
N2240       N  0.62158720  0.58302228  0.98939860    -0.37900
C2241       C  0.29316110  0.75984861  0.99490955    -0.04500
C2242       C  0.30874255  0.72787321  0.98587043    -0.01600
C2243       C  0.33912444  0.72976465  0.98079602     0.03400
C2244       C  0.35438018  0.76283086  0.98743414    -0.04500
C2245       C  0.33942400  0.79245376  0.00211278    -0.01600
C2246       C  0.30888403  0.79163662  0.00473447     0.03300
C2247       C  0.29383274  0.69270533  0.98333806     0.38000
C2248       C  0.35560430  0.82407336  0.01422382     0.38000
C2249       C  0.29445519  0.81548077  0.52297913     0.36400
C2250       C  0.35427575  0.69853199  0.96684566     0.36400
N2251       N  0.28273679  0.84045181  0.53458286    -0.38400
N2252       N  0.36631944  0.67363648  0.95555568    -0.38400
N2253       N  0.36836393  0.84899111  0.02478896    -0.37900
N2254       N  0.28229105  0.66428518  0.98216049    -0.37900
C2255       C  0.19937821  0.73145257  0.93919588    -0.04500
C2256       C  0.20712496  0.69577588  0.92917658    -0.01600
C2257       C  0.18532578  0.66896282  0.92387211     0.03400
C2258       C  0.15554446  0.67914642  0.92408619    -0.04500
C2259       C  0.14857974  0.71688153  0.92616470    -0.01600
C2260       C  0.17058086  0.74301154  0.93358703     0.03300
C2261       C  0.23727636  0.68692643  0.92319309     0.38000
C2262       C  0.11907652  0.72878382  0.92037808     0.38000
C2263       C  0.16411575  0.78199100  0.93434683     0.36400
C2264       C  0.19398522  0.63069501  0.92110886     0.36400
N2265       N  0.15422706  0.80869985  0.44297225    -0.38400
N2266       N  0.20156213  0.60040248  0.91935044    -0.38400
N2267       N  0.09558460  0.73834439  0.91540168    -0.37900
N2268       N  0.26108933  0.67990449  0.91682407    -0.37900
C2269       C  0.24658716  0.01642490  0.99518399    -0.04500
C2270       C  0.22888823  0.98744123  0.98225122    -0.01600
C2271       C  0.19850366  0.99222636  0.97792908     0.03400
C2272       C  0.18509257  0.02579842  0.98667883    -0.04500
C2273       C  0.20425887  0.55955403  0.00378802    -0.01600
C2274       C  0.23251060  0.04920595  0.00586656     0.03300
C2275       C  0.24162435  0.95234998  0.97330250     0.38000
C2276       C  0.19123041  0.59502819  0.01115685     0.38000
C2277       C  0.25108180  0.58544498  0.02247416     0.36400
C2278       C  0.18135126  0.96325699  0.96251783     0.36400
N2279       N  0.26406784  0.60974136  0.03390325    -0.38400
N2280       N  0.16766691  0.94017541  0.95018050    -0.38400
N2281       N  0.18102544  0.62342882  0.01680583    -0.37900
N2282       N  0.25164246  0.92428923  0.96606782    -0.37900
C2283       C  0.74277267  0.00670660  0.75283344    -0.04500
C2284       C  0.72662274  0.97495405  0.76222964    -0.01600
C2285       C  0.69616637  0.97688034  0.76683622     0.03400
C2286       C  0.68160760  0.01051339  0.76234682    -0.04500
C2287       C  0.69690313  0.04038747  0.74842071    -0.01600
C2288       C  0.72728584  0.03870756  0.74381366     0.03300
C2289       C  0.74123866  0.94025133  0.76765660     0.38000
C2290       C  0.68129127  0.07360064  0.74001039     0.38000
C2291       C  0.74247093  0.07099918  0.73170394     0.37200
C2292       C  0.68022308  0.94496188  0.77850154     0.36400
N2293       N  0.75438554  0.09683128  0.72187278    -0.38400
N2294       N  0.66759855  0.91943154  0.78783806    -0.38400
N2295       N  0.67039082  0.60309334  0.73368896    -0.37900
N2296       N  0.75291462  0.91259705  0.77205672    -0.37900
C2297       C  0.88501503  0.91997323  0.81577932    -0.04500
C2298       C  0.86919995  0.94170901  0.83833550    -0.01600
C2299       C  0.84526628  0.96266219  0.82764110     0.03400
C2300       C  0.83597285  0.95975243  0.79507091    -0.04500
C2301       C  0.84982599  0.93472843  0.77364996    -0.01600
C2302       C  0.87503669  0.91647429  0.78340501     0.03300
C2303       C  0.87807426  0.94337978  0.87217154     0.38000
C2304       C  0.83888858  0.92928324  0.74070372     0.38000
C2305       C  0.89068695  0.89403931  0.75987328     0.36400
C2306       C  0.83070028  0.98780750  0.84969175     0.36400
N2307       N  0.90349193  0.87661124  0.74110877    -0.38400
N2308       N  0.81900433  0.00786044  0.86729109    -0.38400
N2309       N  0.83019472  0.92505158  0.71449048    -0.37900
N2310       N  0.88504869  0.94456954  0.89923131    -0.37900
C2311       C  0.85670264  0.76263862  0.77060674    -0.04500
C2312       C  0.84319105  0.73831470  0.79254988    -0.01600
C2313       C  0.81261926  0.73436130  0.79310040     0.03400
C2314       C  0.79489404  0.75312016  0.77003729    -0.04500
C2315       C  0.80919931  0.77582295  0.74659526    -0.01600
C2316       C  0.83976508  0.78024182  0.74696616     0.03300
C2317       C  0.86077508  0.71866681  0.81603645     0.38000
C2318       C  0.79289882  0.79716296  0.72321566     0.38000
C2319       C  0.85400935  0.80316160  0.72283663     0.36400
C2320       C  0.80015557  0.71259939  0.81918936     0.36400
N2321       N  0.86519360  0.82107862  0.70322803    -0.38400
N2322       N  0.79098801  0.69583146  0.84079594    -0.38400
N2323       N  0.78019753  0.81447235  0.70451581    -0.37900
N2324       N  0.87467278  0.70271791  0.83460987    -0.37900
C2325       C  0.29198274  0.47263390  0.73890598    -0.04500
C2326       C  0.31081598  0.50259544  0.73228088    -0.01600
C2327       C  0.33836196  0.99280864  0.73103127     0.03400
C2328       C  0.35046621  0.95757542  0.73603249    -0.04500
C2329       C  0.33434751  0.43334549  0.74685477    -0.01600
C2330       C  0.30410363  0.43871628  0.74854017     0.03300
C2331       C  0.29916402  0.53933720  0.72913203     0.38000
C2332       C  0.34646887  0.39802220  0.75589831     0.38000
C2333       C  0.28549714  0.40892821  0.75971664     0.36400
C2334       C  0.35691823  0.02347215  0.72181667     0.36400
N2335       N  0.27074709  0.38534049  0.76912697    -0.38400
N2336       N  0.37162612  0.04804405  0.71443633    -0.38400
N2337       N  0.35616473  0.36988470  0.76304368    -0.37900
N2338       N  0.28667050  0.06368465  0.72739527    -0.37900
C2339       C  0.19978933  0.47851721  0.79717467    -0.04500
C2340       C  0.20405638  0.51270933  0.81297366    -0.01600
C2341       C  0.18206391  0.52713131  0.83263855     0.03400
C2342       C  0.15723951  0.50546788  0.84014944    -0.04500
C2343       C  0.15380771  0.47012966  0.82603131    -0.01600
C2344       C  0.17471242  0.45716793  0.80370947     0.03300
C2345       C  0.22980872  0.53493898  0.80638666     0.38000
C2346       C  0.12862532  0.44760209  0.83375636     0.38000
C2347       C  0.16993507  0.42270102  0.78632257     0.36400
C2348       C  0.18362513  0.56588673  0.84189089     0.36400
N2349       N  0.16784515  0.88516086  0.78237316    -0.38400
N2350       N  0.18473467  0.59697736  0.84832382    -0.38400
N2351       N  0.11083030  0.92208243  0.85005922    -0.37900
N2352       N  0.25031996  0.55259998  0.80124917    -0.37900
C2353       C  0.15748036  0.74639804  0.59680487    -0.04500
C2354       C  0.14911764  0.77042680  0.57154621    -0.01600
C2355       C  0.17032940  0.78442346  0.55002249     0.03400
C2356       C  0.19931275  0.77219066  0.55183788    -0.04500
C2357       C  0.20857684  0.75523245  0.58070837    -0.01600
C2358       C  0.18782697  0.74330495  0.60360492     0.03300
C2359       C  0.11901102  0.78064657  0.56710242     0.38000
C2360       C  0.23917176  0.74829381  0.58649667     0.38000
C2361       C  0.19840755  0.72735891  0.63361589     0.36400
C2362       C  0.16270298  0.81238469  0.52664302     0.36400
N2363       N  0.20751175  0.71467143  0.65721555    -0.38400
N2364       N  0.15658832  0.83574497  0.50898058    -0.38400
N2365       N  0.26349469  0.74269776  0.59138483    -0.37900
N2366       N  0.09502428  0.78897001  0.56343307    -0.37900
C2367       C  0.15304294  0.55750445  0.66863442    -0.04500
C2368       C  0.18293774  0.56699840  0.66464787    -0.01600
C2369       C  0.20490595  0.54161220  0.67283656     0.03400
C2370       C  0.19727520  0.50697612  0.68562240    -0.04500
C2371       C  0.16788833  0.49519656  0.68309800    -0.01600
C2372       C  0.14580096  0.52057060  0.67556830     0.03300
C2373       C  0.19154536  0.60361138  0.65425939     0.38000
C2374       C  0.16028035  0.45725173  0.69037655     0.38000
C2375       C  0.11565384  0.50874249  0.67546430     0.36400
C2376       C  0.23519534  0.55184176  0.66913569     0.36400
N2377       N  0.09159069  0.49927418  0.67534544    -0.38400
N2378       N  0.25921453  0.56031359  0.66523318    -0.38400
N2379       N  0.15428203  0.42697022  0.69617778    -0.37900
N2380       N  0.19864057  0.63265299  0.64578310    -0.37900
C2381       C  0.24475083  0.71816369  0.73892224    -0.04500
C2382       C  0.22687157  0.74820490  0.73077021    -0.01600
C2383       C  0.19644267  0.74332779  0.72786536     0.03400
C2384       C  0.18357137  0.70856291  0.73427623    -0.04500
C2385       C  0.20119089  0.68000872  0.74657374    -0.01600
C2386       C  0.23154491  0.68476792  0.74881547     0.03300
C2387       C  0.23956524  0.78451126  0.72655980     0.38000
C2388       C  0.18826718  0.64487363  0.75563015     0.38000
C2389       C  0.24920566  0.65463862  0.76040088     0.36400
C2390       C  0.17899431  0.77313468  0.71529073     0.36400
N2391       N  0.26333740  0.63086660  0.77003129    -0.38400
N2392       N  0.16518798  0.79684788  0.70494405    -0.38400
N2393       N  0.17812733  0.61672232  0.76260024    -0.37900
N2394       N  0.24930410  0.81382674  0.72388563    -0.37900
C2395       C  0.74155956  0.72448332  0.51658028    -0.04500
C2396       C  0.72274419  0.75341048  0.52560215    -0.01600
C2397       C  0.69278663  0.74630383  0.53015541     0.03400
C2398       C  0.68133562  0.71072527  0.52388300    -0.04500
C2399       C  0.69969597  0.68321249  0.51101293    -0.01600
C2400       C  0.72974258  0.68963951  0.50828976     0.03300
C2401       C  0.73387692  0.79066348  0.52917667     0.38000
C2402       C  0.68774061  0.64783490  0.50101326     0.38000
C2403       C  0.74863867  0.65965933  0.49844539     0.36400
C2404       C  0.67422837  0.77490163  0.54330549     0.36400
N2405       N  0.76315043  0.64126722  0.98770494    -0.38400
N2406       N  0.65944252  0.79765076  0.55396788    -0.38400
N2407       N  0.67861019  0.61960503  0.49247898    -0.37900
N2408       N  0.74219298  0.82075006  0.53146143    -0.37900
C2409       C  0.83240457  0.72903155  0.95429819    -0.04500
C2410       C  0.82605511  0.75850656  0.93359021    -0.01600
C2411       C  0.84726194  0.77126724  0.91170531     0.03400
C2412       C  0.87440950  0.75279016  0.90887278    -0.04500
C2413       C  0.87853629  0.71967068  0.92607916    -0.01600
C2414       C  0.85751583  0.70792118  0.94879216     0.03300
C2415       C  0.79828018  0.77704458  0.93601765     0.38000
C2416       C  0.90419096  0.69760607  0.92047451     0.38000
C2417       C  0.86136007  0.67388360  0.96646085     0.36400
C2418       C  0.84148816  0.80511324  0.89419217     0.36400
N2419       N  0.86410203  0.64639275  0.98017630    -0.38400
N2420       N  0.83673864  0.83210024  0.88038748    -0.38400
N2421       N  0.92461153  0.67989390  0.91593952    -0.37900
N2422       N  0.77596566  0.79141108  0.93754645    -0.37900
C2423       C  0.84020162  0.03214963  0.70373547    -0.04500
C2424       C  0.87037518  0.03654115  0.70967173    -0.01600
C2425       C  0.89078327  0.01773428  0.69011279     0.03400
C2426       C  0.88145852  0.99863101  0.66175048    -0.04500
C2427       C  0.85191422  0.00263762  0.65181811    -0.01600
C2428       C  0.83140733  0.01909066  0.67286913     0.03300
C2429       C  0.88010649  0.05709514  0.73818121     0.38000
C2430       C  0.84174793  0.98829661  0.62071258     0.38000
C2431       C  0.80101404  0.01997430  0.66353705     0.36400
C2432       C  0.92056203  0.01519319  0.70133865     0.36400
N2433       N  0.77680353  0.02053784  0.65598226    -0.38400
N2434       N  0.94418019  0.01278352  0.71068535    -0.38400
N2435       N  0.83316212  0.97651536  0.59625833    -0.37900
N2436       N  0.88789761  0.07340430  0.76092662    -0.37900
C2437       C  0.83790543  0.75884809  0.56483138    -0.04500
C2438       C  0.86699058  0.74668554  0.56620741    -0.01600
C2439       C  0.88952451  0.77146121  0.57464780     0.03400
C2440       C  0.88282537  0.80783637  0.58411694    -0.04500
C2441       C  0.85320549  0.81733983  0.58921314    -0.01600
C2442       C  0.83084387  0.79256849  0.57993531     0.03300
C2443       C  0.88259658  0.71114704  0.05125554     0.38000
C2444       C  0.84527805  0.85356551  0.60147697     0.38000
C2445       C  0.80078103  0.80241418  0.58526623     0.36400
C2446       C  0.91951254  0.75971853  0.57271443     0.36400
N2447       N  0.77700497  0.81053666  0.59065120    -0.38400
N2448       N  0.94342721  0.75031724  0.57099484    -0.38400
N2449       N  0.83881720  0.88236483  0.61127212    -0.37900
N2450       N  0.89003016  0.68338310  0.04014166    -0.37900
C2451       C  0.84959444  0.95036424  0.51569857    -0.04500
C2452       C  0.83294687  0.42057860  0.50939324    -0.01600
C2453       C  0.80639344  0.42577940  0.99654176     0.03400
C2454       C  0.78798216  0.45670402  0.50720628    -0.04500
C2455       C  0.80460898  0.48881837  0.51479309    -0.01600
C2456       C  0.83509175  0.48666604  0.51978810     0.03300
C2457       C  0.84795854  0.88425914  0.00169988     0.38000
C2458       C  0.79043908  0.52421859  0.51800819     0.38000
C2459       C  0.85146382  0.01715045  0.52823136     0.36400
C2460       C  0.79110972  0.39323109  0.98461530     0.36400
N2461       N  0.86440539  0.04317011  0.53620862    -0.38400
N2462       N  0.77913506  0.36720501  0.97491256    -0.38400
N2463       N  0.77915667  0.55244965  0.52091085    -0.37900
N2464       N  0.85961341  0.85628021  0.99871286    -0.37900
loop_ 
_geom_bond_atom_site_label_1 
_geom_bond_atom_site_label_2 
_geom_bond_distance 
_geom_bond_site_symmetry_2 
_ccdc_geom_bond_type 
C1            N2   1.366       .  A
C1            N6   1.373       .  A
C1           C62   1.494       .  S
N2            C3   1.360       .  A
C3            N4   1.357       .  A
C3          C729   1.476       .  S
N4            C5   1.357       .  A
C5            N6   1.370       .  A
C5         C1254   1.489   1_455  S
O7           C23   1.277       .  A
O7          Zn13   2.026       .  S
C8          C603   1.501       .  S
C8           O24   1.287       .  A
C8           O21   1.271       .  A
O9           C22   1.284       .  A
O9          Cd16   2.114       .  S
O10          C28   1.264       .  A
O10         Cd19   2.007       .  S
O11          C25   1.283       .  A
O11         Cd15   2.122       .  S
O12          C23   1.286       .  A
O12         Cd15   2.139       .  S
Zn13         O24   2.116       .  S
Zn13         O26   2.065       .  S
Zn13         O18   1.911       .  S
O14          C25   1.265       .  A
O14         Cd19   2.024       .  S
Cd15         O17   2.115       .  S
Cd15         O18   1.996       .  S
Cd16         O20   2.153       .  S
Cd16         O29   2.129       .  S
Cd16         O18   1.984       .  S
O17          C27   1.285       .  A
O18         Cd19   1.939       .  S
Cd19         O21   2.031       .  S
O20          C27   1.292       .  A
C22        C1237   1.489   1_655  S
C22          O26   1.285       .  A
C23         C724   1.484   1_654  S
C25         C592   1.498       .  S
C27          C36   1.501   1_655  S
C28         C578   1.511       .  S
C28          O29   1.281       .  A
C30          N31   1.369       .  A
C30         N651   1.361   1_554  A
C30         C547   1.489       .  S
N31          C32   1.367       .  A
C32         N649   1.351       .  A
C32         C589   1.496       .  S
N33          C34   1.346       .  A
N33         C648   1.351       .  A
C34          N35   1.354       .  A
C34         C561   1.474       .  S
N35         C646   1.361       .  A
C36          N37   1.377       .  A
C36          N41   1.370   1_455  A
N37          C38   1.371       .  A
C38          N39   1.353       .  A
C38          C57   1.489       .  S
N39          C40   1.351       .  A
C40          N41   1.364   1_455  A
C40          C78   1.473   1_455  S
O42          C58   1.278       .  A
O42         Zn48   2.027       .  S
C43         C536   1.491       .  S
C43          O59   1.283       .  A
C43          O56   1.267       .  A
O44          C57   1.283       .  A
O44         Cd51   2.118       .  S
O45          C63   1.262       .  A
O45         Cd54   2.001       .  S
O46          C60   1.285       .  A
O46         Cd50   2.145       .  S
O47          C58   1.289       .  A
O47         Cd50   2.163       .  S
Zn48         O59   2.090       .  S
Zn48         O61   2.058       .  S
Zn48         O53   1.906       .  S
O49          C60   1.265       .  A
O49         Cd54   2.025       .  S
Cd50         O52   2.128       .  S
Cd50         O53   2.002       .  S
Cd51         O55   2.126       .  S
Cd51         O64   2.126       .  S
Cd51         O53   1.989       .  S
O52          C62   1.288       .  A
O53         Cd54   1.931       .  S
Cd54         O56   2.002       .  S
O55          C62   1.290       .  A
C57          O61   1.284       .  A
C58          C75   1.494       .  S
C60         C519   1.502       .  S
C63         C505   1.508       .  S
C63          O64   1.281       .  A
C65          N66   1.377       .  A
C65          N70   1.360       .  A
C65         C477   1.499       .  S
N66          C67   1.373       .  A
C67          N68   1.348       .  A
C67         C522   1.501   1_565  S
N68          C69   1.341       .  A
C69          N70   1.353       .  A
C69         C491   1.462       .  S
C71          N72   1.374       .  A
C71          N76   1.376       .  A
C71         C133   1.499       .  S
N72          C73   1.368       .  A
C73          N74   1.359       .  A
C73          C92   1.495   1_455  S
N74          C75   1.356       .  A
C75          N76   1.366       .  A
O77          C93   1.278       .  A
O77         Zn83   2.070       .  S
C78          O94   1.278       .  A
C78          O91   1.283       .  A
O79          C92   1.287       .  A
O79         Cd86   2.154       .  S
O80          C98   1.287       .  A
O80         Cd89   2.119       .  S
O81          C95   1.264       .  A
O81         Cd85   2.032       .  S
O82          C93   1.267       .  A
O82         Cd85   2.033       .  S
Zn83         O94   2.020       .  S
Zn83         O96   2.024       .  S
Zn83         O88   1.907       .  S
O84          C95   1.277       .  A
O84         Cd89   2.108       .  S
Cd85         O87   1.995       .  S
Cd85         O88   1.949       .  S
Cd86         O90   2.122       .  S
Cd86         O99   2.121       .  S
Cd86         O88   2.001       .  S
O87          C97   1.263       .  A
O88         Cd89   1.995       .  S
Cd89         O91   2.112       .  S
O90          C97   1.282       .  A
C92          O96   1.277       .  A
C93         C463   1.482       .  S
C95         C449   1.481       .  S
C97         C564   1.497       .  S
C98         C106   1.491   1_655  S
C98          O99   1.287       .  A
C100        N101   1.370       .  A
C100        N105   1.369       .  A
C100        C435   1.511       .  S
N101        C102   1.361       .  A
C102        N103   1.342       .  A
C102        C452   1.477       .  S
N103        C104   1.345       .  A
C104        N105   1.364       .  A
C104        C575   1.488       .  S
C106        N107   1.370   1_455  A
C106        N111   1.370       .  A
N107        C108   1.364       .  A
C108        N109   1.360   1_655  A
C108        C639   1.487       .  S
N109        C110   1.360       .  A
C110        N111   1.366       .  A
C110        C127   1.489       .  S
O112        C128   1.287       .  A
O112      Zn1350   2.128       .  S
C113        C619   1.478       .  S
C113        O129   1.277       .  A
C113        O126   1.286       .  A
O114        C127   1.285       .  A
O114      Cd1353   2.124       .  S
O115        C133   1.286       .  A
O115       Cd124   2.124       .  S
O116        C130   1.263       .  A
O116       Cd120   2.018       .  S
O117       C1360   1.268       .  A
O117       Cd120   2.026       .  S
Zn118       O129   2.014       .  S
Zn118      O1344   2.115       .  S
Zn118      O1363   2.042   1_545  S
Zn118       O123   1.918       .  S
O119        C130   1.281       .  A
O119       Cd124   2.125       .  S
Cd120       O122   1.987       .  S
Cd120       O123   1.928       .  S
Cd121       O125   2.101       .  S
Cd121       O134   2.129       .  S
Cd121      O1346   2.128   1_545  S
Cd121       O123   1.997       .  S
O122        C132   1.264       .  A
O123       Cd124   2.004       .  S
Cd124       O126   2.131       .  S
O125        C132   1.277       .  A
C127        O131   1.283       .  A
C128        C424   1.504       .  S
C128       O1349   1.267       .  A
C130        C410   1.489       .  S
O131      Zn1350   2.054       .  S
C132        C494   1.473       .  S
C133        O134   1.286       .  A
C135        N140   1.365       .  A
C135        N752   1.362       .  A
C135        C393   1.493       .  S
N136        C137   1.359       .  A
N136        C751   1.362   1_554  A
C137        N138   1.352   1_554  A
C137        C508   1.492       .  S
N138        C755   1.354       .  A
C139        N140   1.364       .  A
C139        N754   1.353       .  A
C139        C407   1.491       .  S
C141        N142   1.369       .  A
C141        N146   1.377       .  A
C141        C203   1.503       .  S
N142        C143   1.365       .  A
C143        N144   1.354       .  A
C143        C849   1.478       .  S
N144        C145   1.356       .  A
C145        N146   1.371       .  A
C145        C162   1.494       .  S
O147        C163   1.283       .  A
O147       Zn153   2.091       .  S
C148        C831   1.481   1_554  S
C148        O164   1.279       .  A
C148        O161   1.282       .  A
O149        C162   1.283       .  A
O149       Cd156   2.127       .  S
O150        C168   1.285       .  A
O150       Cd159   2.107       .  S
O151        C165   1.265       .  A
O151       Cd155   2.032       .  S
O152        C163   1.268       .  A
O152       Cd155   2.022       .  S
Zn153       O164   2.043       .  S
Zn153       O166   2.060       .  S
Zn153       O158   1.927       .  S
O154        C165   1.277       .  A
O154       Cd159   2.093       .  S
Cd155       O157   2.020       .  S
Cd155       O158   1.972       .  S
Cd156       O160   2.111       .  S
Cd156       O169   2.137       .  S
Cd156       O158   1.991       .  S
O157        C167   1.266       .  A
O158       Cd159   1.993       .  S
Cd159       O161   2.116       .  S
O160        C167   1.278       .  A
C162        O166   1.283       .  A
C163        C550   1.487       .  S
C165        C379   1.486       .  S
C167        C368   1.498       .  S
C168        C176   1.494       .  S
C168        O169   1.289       .  A
C170        N171   1.370       .  A
C170        N791   1.372   1_554  A
C170        C606   1.515       .  S
N171        C172   1.361       .  A
C172        N789   1.343       .  A
C172        C382   1.481   1_565  S
N173        C174   1.344       .  A
N173        C788   1.344       .  A
C174        N175   1.363       .  A
C174        C351   1.491       .  S
N175        C786   1.370       .  A
C176        N177   1.371       .  A
C176        N181   1.372       .  A
N177        C178   1.365       .  A
C178        N179   1.358       .  A
C178        C268   1.485       .  S
N179        C180   1.357       .  A
C180        N181   1.366       .  A
C180       C1429   1.490       .  S
O182        C198   1.282       .  A
O182       Zn188   2.096       .  S
C183        C250   1.485       .  S
C183        O199   1.278       .  A
C183        O196   1.285       .  A
O184        C197   1.285       .  A
O184       Cd191   2.122       .  S
O185        C203   1.285       .  A
O185       Cd194   2.115       .  S
O186        C200   1.268       .  A
O186       Cd190   2.025       .  S
O187        C198   1.267       .  A
O187       Cd190   2.018       .  S
Zn188       O199   2.028       .  S
Zn188       O201   2.038       .  S
Zn188       O193   1.913       .  S
O189        C200   1.282       .  A
O189       Cd194   2.117       .  S
Cd190       O192   2.022       .  S
Cd190       O193   1.940       .  S
Cd191       O195   2.136       .  S
Cd191       O204   2.161       .  S
Cd191       O193   1.990       .  S
O192        C202   1.266       .  A
O193       Cd194   1.996       .  S
Cd194       O196   2.138       .  S
O195        C202   1.283       .  A
C197       C1412   1.485       .  S
C197        O201   1.280       .  A
C198        C480   1.492       .  S
C200        C337   1.490       .  S
C202        C323   1.517       .  S
C203        O204   1.294       .  A
C205        N206   1.367       .  A
C205        N210   1.358       .  A
C205        C533   1.488       .  S
N206        C207   1.365       .  A
C207        N208   1.354       .  A
C207        C340   1.493       .  S
N208        C209   1.352       .  A
C209        N210   1.354       .  A
C209        C312   1.484       .  S
C211        N212   1.377       .  A
C211        N216   1.371       .  A
C211        C272   1.507       .  S
N212        C213   1.372       .  A
C213        N214   1.356       .  A
C213        C232   1.495       .  S
N214        C215   1.354       .  A
C215        N216   1.367       .  A
C215        C764   1.482       .  S
O217        C233   1.278       .  A
O217       Zn223   2.032       .  S
C218        C396   1.490       .  S
C218        O234   1.283       .  A
C218        O231   1.269       .  A
O219        C232   1.284       .  A
O219       Cd226   2.128       .  S
O220        C238   1.266       .  A
O220       Cd229   2.012       .  S
O221        C235   1.278       .  A
O221       Cd225   2.096       .  S
O222        C233   1.284       .  A
O222       Cd225   2.126       .  S
Zn223       O234   2.098       .  S
Zn223       O236   2.066       .  S
Zn223       O228   1.930       .  S
O224        C235   1.266       .  A
O224       Cd229   2.039       .  S
Cd225       O227   2.112       .  S
Cd225       O228   1.994       .  S
Cd226       O230   2.137       .  S
Cd226       O239   2.100       .  S
Cd226       O228   1.993       .  S
O227        C237   1.285       .  A
O228       Cd229   1.971       .  S
Cd229       O231   2.026       .  S
O230        C237   1.289       .  A
C232        O236   1.284       .  A
C233        C759   1.482       .  S
C235        C295   1.493       .  S
C237        C246   1.496       .  S
C238        C309   1.493       .  S
C238        O239   1.277       .  A
C240        N245   1.374       .  A
C240        N857   1.370       .  A
C240        C421   1.517       .  S
N241        C242   1.363       .  A
N241        C856   1.369       .  A
C242        N243   1.342       .  A
C242        C326   1.491       .  S
N243        C860   1.344   1_554  A
C244        N245   1.365       .  A
C244        N859   1.344       .  A
C244        C298   1.488       .  S
C246        N247   1.372       .  A
C246        N251   1.372       .  A
N247        C248   1.366       .  A
C248        N249   1.356       .  A
C248        C267   1.487       .  S
N249        C250   1.357       .  A
C250        N251   1.366       .  A
O252        C268   1.276       .  A
O252       Zn258   2.014       .  S
C253        C438   1.497       .  S
C253        O269   1.284       .  A
C253       O1498   1.268       .  A
O254        C267   1.286       .  A
O254      Cd1493   2.125       .  S
O255        C273   1.266   1_545  A
O255       Cd264   2.019       .  S
O256        C270   1.283       .  A
O256       Cd260   2.125       .  S
O257        C268   1.286       .  A
O257       Cd260   2.149       .  S
Zn258      O1501   2.103       .  S
Zn258      O1503   2.050   1_545  S
Zn258       O263   1.916       .  S
O259        C270   1.266       .  A
O259       Cd264   2.023       .  S
Cd260       O262   2.117       .  S
Cd260       O263   2.002       .  S
Cd261       O265   2.168       .  S
Cd261       O274   2.138   1_545  S
Cd261      O1486   2.125   1_545  S
Cd261       O263   1.989       .  S
O262        C272   1.285       .  A
O263       Cd264   1.935       .  S
Cd264       O266   2.025       .  S
O265        C272   1.294       .  A
O266       C1485   1.267       .  A
C267        O271   1.283       .  A
O269      Zn1490   2.109       .  S
C270        C281   1.485       .  S
O271      Zn1490   2.048       .  S
C273        C354   1.515       .  S
C273        O274   1.283       .  A
C275        N276   1.366       .  A
C275        N280   1.366       .  A
C275        C466   1.523       .  S
N276        C277   1.361       .  A
C277        N278   1.346       .  A
C277        C365   1.485       .  S
N278        C279   1.345       .  A
C279        N280   1.360       .  A
C279        C284   1.479       .  S
C281        C282   1.419       .  A
C281        C286   1.408       .  A
C282        C283   1.408       .  A
C282        C287   1.452       .  S
C283        C284   1.411       .  A
C283        C290   1.452       .  S
C284        C285   1.414       .  A
C285        C286   1.411       .  A
C285        C288   1.450       .  S
C286        C289   1.449       .  S
C287        N294   1.157       .  T
C288        N293   1.157       .  T
C289        N291   1.157       .  T
C290        N292   1.157       .  T
C295        C296   1.413       .  A
C295        C300   1.423       .  A
C296        C297   1.402       .  A
C296        C301   1.455       .  S
C297        C298   1.418       .  A
C297        C920   1.455       .  S
C298        C299   1.408       .  A
C299        C300   1.421       .  A
C299        C302   1.449       .  S
C300        C303   1.450       .  S
C301        N924   1.158       .  T
C302        N307   1.157       .  T
C303        N305   1.157       .  T
C304        C913   1.455   1_554  S
C304        N306   1.157       .  T
N308        C917   1.158   1_554  T
C309        C310   1.414       .  A
C309        C314   1.424       .  A
C310        C311   1.410       .  A
C310        C315   1.449       .  S
C311        C312   1.411       .  A
C311        C318   1.448       .  S
C312        C313   1.410       .  A
C313        C314   1.406       .  A
C313        C316   1.453       .  S
C314        C317   1.454       .  S
C315        N322   1.157       .  T
C316        N321   1.158       .  T
C317        N319   1.157       .  T
C318        N320   1.157       .  T
C323        C324   1.433       .  A
C323        C328   1.419       .  A
C324        C325   1.413       .  A
C324        C329   1.450       .  S
C325        C326   1.405       .  A
C325        C332   1.452       .  S
C326        C327   1.416       .  A
C327        C328   1.416       .  A
C327        C330   1.451       .  S
C328        C331   1.450       .  S
C329        N336   1.157       .  T
C330        N335   1.157       .  T
C331        N333   1.158       .  T
C332        N334   1.157       .  T
C337        C338   1.422       .  A
C337        C342   1.409       .  A
C338        C339   1.412       .  A
C338        C343   1.452       .  S
C339        C340   1.409       .  A
C339        C346   1.448       .  S
C340        C341   1.414       .  A
C341        C342   1.410       .  A
C341        C344   1.448       .  S
C342        C345   1.450       .  S
C343        N350   1.157       .  T
C344        N349   1.157       .  T
C345        N347   1.157       .  T
C346        N348   1.157       .  T
C351        C352   1.414       .  A
C351        C356   1.404       .  A
C352        C353   1.415       .  A
C352       C1589   1.451       .  S
C353        C354   1.419       .  A
C353       C1592   1.449       .  S
C354        C355   1.433       .  A
C355        C356   1.413       .  A
C355        C358   1.451       .  S
C356        C359   1.451       .  S
C357       C1584   1.451       .  S
C357        N364   1.157       .  T
C358        N363   1.157       .  T
C359        N361   1.158       .  T
C360       C1585   1.450       .  S
C360        N362   1.158       .  T
C365        C366   1.409       .  A
C365        C370   1.415       .  A
C366        C367   1.408       .  A
C366        C371   1.452       .  S
C367        C368   1.425       .  A
C367        C374   1.453       .  S
C368        C369   1.414       .  A
C369        C370   1.412       .  A
C369        C372   1.450       .  S
C370        C373   1.451       .  S
C371        N378   1.158       .  T
C372        N377   1.157       .  T
C373        N375   1.157       .  T
C374        N376   1.157       .  T
C379        C380   1.412       .  A
C379        C384   1.420       .  A
C380        C381   1.403       .  A
C380        C385   1.454       .  S
C381        C382   1.417       .  A
C381       C1004   1.456   1_554  S
C382        C383   1.407       .  A
C383        C384   1.417       .  A
C383        C386   1.449   1_545  S
C384        C387   1.450       .  S
C385       N1008   1.158   1_554  T
C386        N391   1.157       .  T
C387        N389   1.157       .  T
C388        C997   1.456       .  S
C388        N390   1.157       .  T
N392       C1001   1.158       .  T
C393        C394   1.417       .  A
C393        C398   1.411       .  A
C394        C395   1.419       .  A
C394        C399   1.449       .  S
C395        C396   1.411       .  A
C395        C402   1.449       .  S
C396        C397   1.413       .  A
C397        C398   1.409       .  A
C397        C400   1.447       .  S
C398       C1017   1.452       .  S
C399        N406   1.157       .  T
C400        N405   1.155       .  T
C401       C1014   1.452       .  S
C401        N403   1.157       .  T
C402        N404   1.157       .  T
C407        C408   1.405       .  A
C407        C412   1.413       .  A
C408        C409   1.409       .  A
C408        C413   1.449       .  S
C409        C410   1.424       .  A
C409        C416   1.452       .  S
C410        C411   1.410       .  A
C411        C412   1.411       .  A
C411        C414   1.450       .  S
C412        C415   1.448       .  S
C413        N420   1.157       .  T
C414        N419   1.157       .  T
C415       N1033   1.157       .  T
C416        N418   1.157       .  T
N417       C1031   1.157       .  T
C421        C422   1.423       .  A
C421        C426   1.422       .  A
C422        C423   1.422       .  A
C422        C427   1.450       .  S
C423        C424   1.413       .  A
C423        C430   1.450       .  S
C424       C1657   1.417       .  A
C425       C1656   1.414       .  A
C425       C1658   1.416       .  A
C425        C428   1.453       .  S
C426       C1657   1.417       .  A
C426       C1661   1.452       .  S
C427        N434   1.157       .  T
C428        N433   1.157       .  T
C429       C1658   1.452       .  S
C429        N431   1.158       .  T
C430        N432   1.157       .  T
C435        C436   1.422       .  A
C435        C440   1.420       .  A
C436        C437   1.419       .  A
C436        C441   1.451       .  S
C437        C438   1.412       .  A
C437        C444   1.450       .  S
C438        C439   1.414       .  A
C439        C440   1.416       .  A
C439        C442   1.453       .  S
C440        C443   1.451       .  S
C441        N448   1.157       .  T
C442       N1679   1.157       .  T
C443        N445   1.158       .  T
C444        N446   1.157       .  T
N447       C1674   1.157       .  T
C449        C450   1.414       .  A
C449        C454   1.412       .  A
C450        C451   1.416       .  A
C450        C455   1.449       .  S
C451        C452   1.410       .  A
C451        C458   1.449       .  S
C452        C453   1.415       .  A
C453        C454   1.405       .  A
C453        C456   1.455       .  S
C454        C457   1.453       .  S
C455        N462   1.157       .  T
C456        N461   1.158       .  T
C457        N459   1.157       .  T
C458        N460   1.157       .  T
C463        C464   1.406       .  A
C463        C468   1.404       .  A
C464        C465   1.414       .  A
C464        C469   1.454       .  S
C465        C466   1.432       .  A
C465        C472   1.451       .  S
C466        C467   1.433       .  A
C467        C468   1.416       .  A
C467        C470   1.451       .  S
C468        C471   1.452       .  S
C469        N476   1.157       .  T
C470        N475   1.158       .  T
C471        N473   1.157       .  T
C472        N474   1.158       .  T
C477        C478   1.414   1_565  A
C477        C482   1.418       .  A
C478       C1711   1.417   1_545  A
C478        C483   1.446       .  S
C479        C480   1.415       .  A
C479       C1710   1.418       .  A
C479        C486   1.450       .  S
C480       C1713   1.414       .  A
C481        C482   1.412       .  A
C481       C1712   1.413       .  A
C481        C484   1.453       .  S
C482        C485   1.451       .  S
C483       N1722   1.156       .  T
C484        N489   1.157       .  T
C485        N487   1.157       .  T
C486        N488   1.157       .  T
N490       C1715   1.157       .  T
C491        C492   1.408   1_565  A
C491        C496   1.412       .  A
C492        C493   1.396       .  A
C492        C497   1.454       .  S
C493        C494   1.416       .  A
C493        C500   1.455       .  S
C494        C495   1.411   1_545  A
C495        C496   1.412       .  A
C495        C498   1.449       .  S
C496        C499   1.450       .  S
C497        N504   1.156       .  T
C498       N1735   1.157       .  T
C499       N1733   1.157       .  T
C500        N502   1.157       .  T
N501       C1731   1.157       .  T
N503       C1730   1.157       .  T
C505        C506   1.416       .  A
C505        C510   1.430       .  A
C506        C507   1.412       .  A
C506        C511   1.450       .  S
C507        C508   1.412       .  A
C507        C514   1.448       .  S
C508        C509   1.410       .  A
C509        C510   1.411       .  A
C509        C512   1.452       .  S
C510        C513   1.453       .  S
C511        N518   1.158       .  T
C512        N517   1.158       .  T
C513        N515   1.157       .  T
C514        N516   1.157       .  T
C519        C520   1.426       .  A
C519        C524   1.409       .  A
C520        C521   1.418       .  A
C520        C525   1.452       .  S
C521        C522   1.409       .  A
C521        C528   1.447       .  S
C522        C523   1.421   1_545  A
C523        C524   1.413   1_565  A
C523        C526   1.452       .  S
C524        C527   1.450       .  S
C525        N532   1.157       .  T
C526        N531   1.157       .  T
C527        N529   1.157       .  T
C528        N530   1.157       .  T
C533        C534   1.412       .  A
C533        C538   1.410       .  A
C534        C535   1.415       .  A
C534        C539   1.447       .  S
C535        C536   1.416       .  A
C535        C542   1.450       .  S
C536        C537   1.419       .  A
C537        C538   1.408       .  A
C537        C540   1.454       .  S
C538        C541   1.450       .  S
C539        N546   1.156       .  T
C540        N545   1.158       .  T
C541        N543   1.156       .  T
C542        N544   1.157       .  T
C547        C548   1.415       .  A
C547        C552   1.411       .  A
C548        C549   1.418       .  A
C548        C553   1.449       .  S
C549        C550   1.413       .  A
C549        C556   1.449       .  S
C550        C551   1.413       .  A
C551        C552   1.408       .  A
C551        C554   1.449       .  S
C552        C555   1.453       .  S
C553        N560   1.157       .  T
C554        N559   1.156   1_554  T
C555       N1173   1.157   1_554  T
C556        N558   1.157       .  T
N557       C1171   1.157       .  T
C561        C562   1.404       .  A
C561        C566   1.409       .  A
C562        C563   1.406       .  A
C562        C567   1.454       .  S
C563        C564   1.430       .  A
C563        C570   1.454       .  S
C564        C565   1.416       .  A
C565        C566   1.410       .  A
C565        C568   1.450       .  S
C566        C569   1.450       .  S
C567        N574   1.157       .  T
C568        N573   1.157       .  T
C569        N571   1.157       .  T
C570        N572   1.158       .  T
C575        C576   1.414       .  A
C575        C580   1.403       .  A
C576        C577   1.414       .  A
C576        C581   1.451       .  S
C577        C578   1.419       .  A
C577        C584   1.450       .  S
C578        C579   1.434       .  A
C579        C580   1.411       .  A
C579        C582   1.452       .  S
C580        C583   1.452       .  S
C581        N588   1.157       .  T
C582        N587   1.157       .  T
C583        N585   1.157       .  T
C584        N586   1.158       .  T
C589        C590   1.417       .  A
C589        C594   1.408       .  A
C590        C591   1.409       .  A
C590       C1211   1.450       .  S
C591        C592   1.412       .  A
C591        C598   1.451       .  S
C592        C593   1.428       .  A
C593        C594   1.415       .  A
C593        C596   1.452       .  S
C594        C597   1.450       .  S
C595       C1206   1.450       .  S
C595        N602   1.157       .  T
C596        N601   1.158       .  T
C597        N599   1.157       .  T
C598        N600   1.157       .  T
C603       C1836   1.415       .  A
C603       C1840   1.413       .  A
C604       C1835   1.418       .  A
C604       C1221   1.418   1_554  A
C604       C2457   1.453       .  S
C605       C1220   1.416       .  A
C605       C1222   1.421       .  A
C605        C612   1.451       .  S
C606        C607   1.423       .  A
C606       C1221   1.419   1_554  A
C607        C608   1.421       .  A
C607        C610   1.450   1_565  S
C608       C1835   1.413       .  A
C608       C1843   1.451   1_565  S
C609       C2452   1.454       .  S
C609        N616   1.158       .  T
C610        N615   1.157       .  T
C611       C1840   1.451       .  S
C611        N613   1.157       .  T
C612        N614   1.157       .  T
C617        N618   1.366       .  A
C617        N622   1.371       .  A
C617        C678   1.489       .  S
N618        C619   1.360       .  A
C619        N620   1.358       .  A
N620        C621   1.358       .  A
C621        N622   1.368       .  A
C621       C1870   1.487   1_455  S
O623        C639   1.277       .  A
O623       Zn629   2.033       .  S
C624       C1219   1.502       .  S
C624        O640   1.288       .  A
C624        O637   1.271       .  A
O625        C638   1.283       .  A
O625       Cd632   2.100       .  S
O626        C644   1.266       .  A
O626       Cd635   2.021       .  S
O627        C641   1.282       .  A
O627       Cd631   2.116       .  S
O628        C639   1.285       .  A
O628       Cd631   2.141       .  S
Zn629       O640   2.119       .  S
Zn629       O642   2.068       .  S
Zn629       O634   1.917       .  S
O630        C641   1.266       .  A
O630       Cd635   2.029       .  S
Cd631       O633   2.116       .  S
Cd631       O634   2.000       .  S
Cd632       O636   2.138       .  S
Cd632       O645   2.122       .  S
Cd632       O634   1.983       .  S
O633        C643   1.285       .  A
O634       Cd635   1.948       .  S
Cd635       O637   2.031       .  S
O636        C643   1.290       .  A
C638       C1853   1.485   1_655  S
C638        O642   1.286       .  A
C641       C1208   1.496       .  S
C643        C652   1.497   1_655  S
C644       C1194   1.506       .  S
C644        O645   1.279       .  A
C646        N647   1.369       .  A
C646       C1163   1.487       .  S
N647        C648   1.367       .  A
C648       C1205   1.494       .  S
N649        C650   1.346   1_554  A
C650        N651   1.354       .  A
C650       C1177   1.475       .  S
C652        N653   1.376       .  A
C652        N657   1.369   1_455  A
N653        C654   1.370       .  A
C654        N655   1.354       .  A
C654        C673   1.488       .  S
N655        C656   1.353       .  A
C656        N657   1.362   1_455  A
C656        C694   1.474   1_455  S
O658        C674   1.277       .  A
O658       Zn664   2.028       .  S
C659       C1152   1.487       .  S
C659        O675   1.283       .  A
C659        O672   1.269       .  A
O660        C673   1.282       .  A
O660       Cd667   2.113       .  S
O661        C679   1.263       .  A
O661       Cd670   2.002       .  S
O662        C676   1.283       .  A
O662       Cd666   2.142       .  S
O663        C674   1.288       .  A
O663       Cd666   2.157       .  S
Zn664       O675   2.079       .  S
Zn664       O677   2.058       .  S
Zn664       O669   1.907       .  S
O665        C676   1.265       .  A
O665       Cd670   2.028       .  S
Cd666       O668   2.124       .  S
Cd666       O669   2.004       .  S
Cd667       O671   2.116       .  S
Cd667       O680   2.121       .  S
Cd667       O669   1.991       .  S
O668        C678   1.288       .  A
O669       Cd670   1.944       .  S
Cd670       O672   2.009       .  S
O671        C678   1.288       .  A
C673        O677   1.283       .  A
C674        C691   1.493       .  S
C676       C1135   1.501       .  S
C679       C1121   1.505       .  S
C679        O680   1.279       .  A
C681        N682   1.376       .  A
C681        N686   1.360       .  A
C681       C1093   1.498       .  S
N682        C683   1.372       .  A
C683        N684   1.348       .  A
C683       C1138   1.502   1_565  S
N684        C685   1.343       .  A
C685        N686   1.354       .  A
C685       C1107   1.463       .  S
C687        N688   1.371       .  A
C687        N692   1.375       .  A
C687        C749   1.494       .  S
N688        C689   1.364       .  A
C689        N690   1.359       .  A
C689        C708   1.487   1_455  S
N690        C691   1.356       .  A
C691        N692   1.367       .  A
O693        C709   1.278       .  A
O693       Zn699   2.071       .  S
C694        O710   1.277       .  A
C694        O707   1.284       .  A
O695        C708   1.287       .  A
O695       Cd702   2.145       .  S
O696        C714   1.286       .  A
O696       Cd705   2.121       .  S
O697        C711   1.262       .  A
O697       Cd701   2.022       .  S
O698        C709   1.267       .  A
O698       Cd701   2.038       .  S
Zn699       O710   2.010       .  S
Zn699       O712   2.012       .  S
Zn699       O704   1.904       .  S
O700        C711   1.278       .  A
O700       Cd705   2.106       .  S
Cd701       O703   1.990       .  S
Cd701       O704   1.940       .  S
Cd702       O706   2.126       .  S
Cd702       O715   2.128       .  S
Cd702       O704   1.996       .  S
O703        C713   1.262       .  A
O704       Cd705   1.998       .  S
Cd705       O707   2.122       .  S
O706        C713   1.282       .  A
C708        O712   1.276       .  A
C709       C1079   1.483       .  S
C711       C1065   1.476       .  S
C713       C1180   1.496       .  S
C714        C722   1.495   1_655  S
C714        O715   1.288       .  A
C716        N717   1.367       .  A
C716        N721   1.370       .  A
C716       C1051   1.508       .  S
N717        C718   1.358       .  A
C718        N719   1.343       .  A
C718       C1068   1.471       .  S
N719        C720   1.345       .  A
C720        N721   1.366       .  A
C720       C1191   1.496       .  S
C722        N723   1.369   1_455  A
C722        N727   1.373       .  A
N723        C724   1.362   1_655  A
C724        N725   1.358       .  A
N725        C726   1.359       .  A
C726        N727   1.369       .  A
C726        C743   1.492       .  S
O728        C744   1.287       .  A
O728      Zn1966   2.128       .  S
C729        O745   1.279       .  A
C729        O742   1.285   1_554  A
O730        C743   1.284       .  A
O730      Cd1969   2.124       .  S
O731        C749   1.286       .  A
O731       Cd740   2.119       .  S
O732        C746   1.263       .  A
O732       Cd736   2.020       .  S
O733       C1976   1.268       .  A
O733       Cd736   2.024       .  S
Zn734      O1960   2.122       .  S
Zn734       O745   2.026   1_556  S
Zn734      O1979   2.055   1_545  S
Zn734       O739   1.913       .  S
O735        C746   1.280       .  A
O735       Cd740   2.126       .  S
Cd736       O738   1.982       .  S
Cd736       O739   1.927       .  S
Cd737      O1962   2.122   1_545  S
Cd737       O741   2.100       .  S
Cd737       O750   2.121       .  S
Cd737       O739   1.995       .  S
O738        C748   1.263       .  A
O739       Cd740   1.999       .  S
Cd740       O742   2.123       .  S
O741        C748   1.277       .  A
C743        O747   1.284       .  A
C744       C1040   1.507       .  S
C744       O1965   1.266       .  A
C746       C1026   1.491       .  S
O747      Zn1966   2.062       .  S
C748       C1110   1.475       .  S
C749        O750   1.285       .  A
C751        N756   1.367       .  A
C751       C1009   1.498       .  S
N752        C753   1.359       .  A
C753        N754   1.352       .  A
C753       C1124   1.493       .  S
C755        N756   1.367       .  A
C755       C1023   1.495       .  S
C757        N758   1.371       .  A
C757        N762   1.377       .  A
C757        C819   1.503       .  S
N758        C759   1.366       .  A
C759        N760   1.355       .  A
N760        C761   1.356       .  A
C761        N762   1.370       .  A
C761        C778   1.494       .  S
O763        C779   1.282       .  A
O763       Zn769   2.080       .  S
C764        O780   1.279       .  A
C764        O777   1.283       .  A
O765        C778   1.284       .  A
O765       Cd772   2.132       .  S
O766        C784   1.286       .  A
O766       Cd775   2.109       .  S
O767        C781   1.266       .  A
O767       Cd771   2.037       .  S
O768        C779   1.268       .  A
O768       Cd771   2.019       .  S
Zn769       O780   2.037       .  S
Zn769       O782   2.052       .  S
Zn769       O774   1.922       .  S
O770        C781   1.277       .  A
O770       Cd775   2.095       .  S
Cd771       O773   2.020       .  S
Cd771       O774   1.972       .  S
Cd772       O776   2.116       .  S
Cd772       O785   2.137       .  S
Cd772       O774   1.993       .  S
O773        C783   1.267       .  A
O774       Cd775   1.992       .  S
Cd775       O777   2.123       .  S
O776        C783   1.279       .  A
C778        O782   1.282       .  A
C779       C1166   1.485       .  S
C781        C995   1.491       .  S
C783        C984   1.499       .  S
C784        C792   1.493       .  S
C784        O785   1.289       .  A
C786        N787   1.372       .  A
C786       C1222   1.513       .  S
N787        C788   1.364       .  A
C788        C998   1.487   1_565  S
N789        C790   1.344   1_554  A
C790        N791   1.366       .  A
C790        C967   1.496       .  S
C792        N793   1.372       .  A
C792        N797   1.370       .  A
N793        C794   1.366       .  A
C794        N795   1.357       .  A
C794        C884   1.484       .  S
N795        C796   1.356       .  A
C796        N797   1.365       .  A
C796       C2045   1.486       .  S
O798        C814   1.282       .  A
O798       Zn804   2.083       .  S
C799        C866   1.485       .  S
C799        O815   1.277       .  A
C799        O812   1.285       .  A
O800        C813   1.286       .  A
O800       Cd807   2.124       .  S
O801        C819   1.285       .  A
O801       Cd810   2.115       .  S
O802        C816   1.267       .  A
O802       Cd806   2.027       .  S
O803        C814   1.268       .  A
O803       Cd806   2.018       .  S
Zn804       O815   2.025       .  S
Zn804       O817   2.036       .  S
Zn804       O809   1.915       .  S
O805        C816   1.281       .  A
O805       Cd810   2.118       .  S
Cd806       O808   2.016       .  S
Cd806       O809   1.944       .  S
Cd807       O811   2.140       .  S
Cd807       O820   2.164       .  S
Cd807       O809   1.991       .  S
O808        C818   1.265       .  A
O809       Cd810   1.999       .  S
Cd810       O812   2.139       .  S
O811        C818   1.282       .  A
C813       C2028   1.485       .  S
C813        O817   1.280       .  A
C814       C1096   1.488       .  S
C816        C953   1.490       .  S
C818        C939   1.516       .  S
C819        O820   1.294       .  A
C821        N822   1.368       .  A
C821        N826   1.359       .  A
C821       C1149   1.488       .  S
N822        C823   1.365       .  A
C823        N824   1.353       .  A
C823        C956   1.492       .  S
N824        C825   1.350       .  A
C825        N826   1.355       .  A
C825        C928   1.482       .  S
C827        N828   1.379       .  A
C827        N832   1.370       .  A
C827        C888   1.507       .  S
N828        C829   1.373       .  A
C829        N830   1.356       .  A
C829        C848   1.498       .  S
N830        C831   1.354       .  A
C831        N832   1.366       .  A
O833        C849   1.279   1_556  A
O833       Zn839   2.038       .  S
C834       C1012   1.493       .  S
C834        O850   1.285       .  A
C834        O847   1.269       .  A
O835        C848   1.284       .  A
O835       Cd842   2.130       .  S
O836        C854   1.265       .  A
O836       Cd845   2.006       .  S
O837        C851   1.278       .  A
O837       Cd841   2.097       .  S
O838        C849   1.283   1_556  A
O838       Cd841   2.114       .  S
Zn839       O850   2.112       .  S
Zn839       O852   2.072       .  S
Zn839       O844   1.925       .  S
O840        C851   1.265       .  A
O840       Cd845   2.032       .  S
Cd841       O843   2.107       .  S
Cd841       O844   1.992       .  S
Cd842       O846   2.139       .  S
Cd842       O855   2.103       .  S
Cd842       O844   1.991       .  S
O843        C853   1.285       .  A
O844       Cd845   1.966       .  S
Cd845       O847   2.025       .  S
O846        C853   1.289       .  A
C848        O852   1.285       .  A
C851        C911   1.493       .  S
C853        C862   1.494       .  S
C854        C925   1.495       .  S
C854        O855   1.277       .  A
C856        N861   1.374   1_554  A
C856       C1037   1.519       .  S
N857        C858   1.363       .  A
C858        N859   1.342       .  A
C858        C942   1.493       .  S
C860        N861   1.365       .  A
C860        C914   1.487       .  S
C862        N863   1.371       .  A
C862        N867   1.372       .  A
N863        C864   1.364       .  A
C864        N865   1.356       .  A
C864        C883   1.486       .  S
N865        C866   1.357       .  A
C866        N867   1.367       .  A
O868        C884   1.276       .  A
O868       Zn874   2.013       .  S
C869       C1054   1.493       .  S
C869        O885   1.283       .  A
C869       O2114   1.268       .  A
O870        C883   1.285       .  A
O870      Cd2109   2.124       .  S
O871        C889   1.266   1_545  A
O871       Cd880   2.020       .  S
O872        C886   1.282       .  A
O872       Cd876   2.117       .  S
O873        C884   1.285       .  A
O873       Cd876   2.144       .  S
Zn874      O2117   2.094   1_545  S
Zn874      O2119   2.032   1_545  S
Zn874       O879   1.919       .  S
O875        C886   1.267       .  A
O875       Cd880   2.025       .  S
Cd876       O878   2.117       .  S
Cd876       O879   2.005       .  S
Cd877      O2102   2.123   1_545  S
Cd877       O881   2.171       .  S
Cd877       O890   2.141   1_545  S
Cd877       O879   1.991       .  S
O878        C888   1.285       .  A
O879       Cd880   1.939       .  S
Cd880       O882   2.028       .  S
O881        C888   1.295       .  A
O882       C2101   1.268       .  A
C883        O887   1.282       .  A
O885      Zn2106   2.098       .  S
C886        C897   1.482       .  S
O887      Zn2106   2.042       .  S
C889        C970   1.516       .  S
C889        O890   1.284       .  A
C891        N892   1.368       .  A
C891        N896   1.366       .  A
C891       C1082   1.523       .  S
N892        C893   1.363       .  A
C893        N894   1.347       .  A
C893        C981   1.486       .  S
N894        C895   1.345       .  A
C895        N896   1.359       .  A
C895        C900   1.478       .  S
C897        C898   1.418       .  A
C897        C902   1.408       .  A
C898        C899   1.407       .  A
C898        C903   1.452       .  S
C899        C900   1.411       .  A
C899        C906   1.452       .  S
C900        C901   1.414       .  A
C901        C902   1.410       .  A
C901        C904   1.450       .  S
C902        C905   1.450       .  S
C903        N910   1.157       .  T
C904        N909   1.157       .  T
C905        N907   1.157       .  T
C906        N908   1.157       .  T
C911        C912   1.414       .  A
C911        C916   1.423       .  A
C912        C913   1.403       .  A
C912        C917   1.454       .  S
C913        C914   1.418       .  A
C914        C915   1.407       .  A
C915        C916   1.419       .  A
C915        C918   1.449       .  S
C916        C919   1.450       .  S
C918        N923   1.157       .  T
C919        N921   1.157       .  T
C920        N922   1.157       .  T
C925        C926   1.414       .  A
C925        C930   1.426       .  A
C926        C927   1.409       .  A
C926        C931   1.450       .  S
C927        C928   1.411       .  A
C927        C934   1.449       .  S
C928        C929   1.409       .  A
C929        C930   1.406       .  A
C929        C932   1.453       .  S
C930        C933   1.454       .  S
C931        N938   1.157       .  T
C932        N937   1.158       .  T
C933        N935   1.157       .  T
C934        N936   1.157       .  T
C939        C940   1.432       .  A
C939        C944   1.418       .  A
C940        C941   1.413       .  A
C940        C945   1.451       .  S
C941        C942   1.406       .  A
C941        C948   1.452       .  S
C942        C943   1.417       .  A
C943        C944   1.417       .  A
C943        C946   1.451       .  S
C944        C947   1.449       .  S
C945        N952   1.156       .  T
C946        N951   1.157       .  T
C947        N949   1.158       .  T
C948        N950   1.157       .  T
C953        C954   1.422       .  A
C953        C958   1.410       .  A
C954        C955   1.412       .  A
C954        C959   1.452       .  S
C955        C956   1.408       .  A
C955        C962   1.448       .  S
C956        C957   1.414       .  A
C957        C958   1.410       .  A
C957        C960   1.449       .  S
C958        C961   1.450       .  S
C959        N966   1.157       .  T
C960        N965   1.157       .  T
C961        N963   1.157       .  T
C962        N964   1.157       .  T
C967        C968   1.417       .  A
C967        C972   1.404       .  A
C968        C969   1.416       .  A
C968       C2205   1.451       .  S
C969        C970   1.419       .  A
C969       C2208   1.450       .  S
C970        C971   1.433       .  A
C971        C972   1.414       .  A
C971        C974   1.450       .  S
C972        C975   1.451       .  S
C973       C2200   1.452       .  S
C973        N980   1.157   1_556  T
C974        N979   1.157       .  T
C975        N977   1.157       .  T
C976       C2201   1.450       .  S
C976        N978   1.158       .  T
C981        C982   1.408       .  A
C981        C986   1.416       .  A
C982        C983   1.409       .  A
C982        C987   1.452       .  S
C983        C984   1.425       .  A
C983        C990   1.452       .  S
C984        C985   1.413       .  A
C985        C986   1.413       .  A
C985        C988   1.450       .  S
C986        C989   1.450       .  S
C987        N994   1.157       .  T
C988        N993   1.157       .  T
C989        N991   1.157       .  T
C990        N992   1.157       .  T
C995        C996   1.414       .  A
C995       C1000   1.421       .  A
C996        C997   1.404       .  A
C996       C1001   1.455       .  S
C997        C998   1.418       .  A
C998        C999   1.408       .  A
C999       C1000   1.419       .  A
C999       C1002   1.449   1_545  S
C1000      C1003   1.450       .  S
C1002      N1007   1.157       .  T
C1003      N1005   1.157       .  T
C1004      N1006   1.157       .  T
C1009      C1010   1.418       .  A
C1009      C1014   1.413   1_556  A
C1010      C1011   1.421       .  A
C1010      C1015   1.448       .  S
C1011      C1012   1.412       .  A
C1011      C1018   1.449       .  S
C1012      C1013   1.412       .  A
C1013      C1014   1.410   1_556  A
C1013      C1016   1.447   1_556  S
C1015      N1022   1.157       .  T
C1016      N1021   1.155       .  T
C1017      N1019   1.157       .  T
C1018      N1020   1.157       .  T
C1023      C1024   1.405       .  A
C1023      C1028   1.415       .  A
C1024      C1025   1.409       .  A
C1024      C1029   1.448       .  S
C1025      C1026   1.424       .  A
C1025      C1032   1.452       .  S
C1026      C1027   1.410       .  A
C1027      C1028   1.412       .  A
C1027      C1030   1.450       .  S
C1028      C1031   1.448       .  S
C1029      N1036   1.157       .  T
C1030      N1035   1.157       .  T
C1032      N1034   1.157       .  T
C1037      C1038   1.423   1_554  A
C1037      C1042   1.423       .  A
C1038      C1039   1.422       .  A
C1038      C1043   1.450       .  S
C1039      C1040   1.414       .  A
C1039      C1046   1.450       .  S
C1040      C2273   1.418   1_556  A
C1041      C2272   1.414   1_554  A
C1041      C2274   1.416       .  A
C1041      C1044   1.454       .  S
C1042      C2273   1.418       .  A
C1042      C2277   1.451       .  S
C1043      N1050   1.157       .  T
C1044      N1049   1.157       .  T
C1045      C2274   1.452       .  S
C1045      N1047   1.158       .  T
C1046      N1048   1.157       .  T
C1051      C1052   1.423       .  A
C1051      C1056   1.419       .  A
C1052      C1053   1.417       .  A
C1052      C1057   1.451       .  S
C1053      C1054   1.410       .  A
C1053      C1060   1.451       .  S
C1054      C1055   1.414       .  A
C1055      C1056   1.415       .  A
C1055      C1058   1.452       .  S
C1056      C1059   1.451       .  S
C1057      N1064   1.158       .  T
C1058      N2295   1.157       .  T
C1059      N1061   1.158       .  T
C1060      N1062   1.157       .  T
N1063      C2290   1.157       .  T
C1065      C1066   1.415       .  A
C1065      C1070   1.411       .  A
C1066      C1067   1.415       .  A
C1066      C1071   1.449       .  S
C1067      C1068   1.408       .  A
C1067      C1074   1.448       .  S
C1068      C1069   1.413       .  A
C1069      C1070   1.402       .  A
C1069      C1072   1.455       .  S
C1070      C1073   1.453       .  S
C1071      N1078   1.157       .  T
C1072      N1077   1.157       .  T
C1073      N1075   1.157       .  T
C1074      N1076   1.157       .  T
C1079      C1080   1.406       .  A
C1079      C1084   1.405       .  A
C1080      C1081   1.413       .  A
C1080      C1085   1.455       .  S
C1081      C1082   1.432       .  A
C1081      C1088   1.451       .  S
C1082      C1083   1.432       .  A
C1083      C1084   1.417       .  A
C1083      C1086   1.451       .  S
C1084      C1087   1.452       .  S
C1085      N1092   1.157       .  T
C1086      N1091   1.158       .  T
C1087      N1089   1.157       .  T
C1088      N1090   1.157       .  T
C1093      C1094   1.415       .  A
C1093      C1098   1.415       .  A
C1094      C2327   1.419       .  A
C1094      C1099   1.447   1_565  S
C1095      C2326   1.416       .  A
C1095      C1096   1.414       .  A
C1095      C1102   1.450       .  S
C1096      C2329   1.414       .  A
C1097      C2328   1.415       .  A
C1097      C1098   1.412       .  A
C1097      C1100   1.452       .  S
C1098      C1101   1.451       .  S
C1099      N2338   1.157       .  T
C1100      N1105   1.157       .  T
C1101      N1103   1.157       .  T
C1102      N1104   1.157       .  T
N1106      C2331   1.157       .  T
C1107      C1108   1.408   1_565  A
C1107      C1112   1.412       .  A
C1108      C1109   1.397       .  A
C1108      C1113   1.455       .  S
C1109      C1110   1.416       .  A
C1109      C1116   1.455       .  S
C1110      C1111   1.411   1_545  A
C1111      C1112   1.412       .  A
C1111      C1114   1.450       .  S
C1112      C1115   1.450       .  S
C1113      N1120   1.157       .  T
C1114      N2351   1.157       .  T
C1115      N2349   1.157       .  T
C1116      N1118   1.157       .  T
N1117      C2347   1.157       .  T
N1119      C2346   1.157       .  T
C1121      C1122   1.416       .  A
C1121      C1126   1.429       .  A
C1122      C1123   1.412       .  A
C1122      C1127   1.450       .  S
C1123      C1124   1.413       .  A
C1123      C1130   1.449       .  S
C1124      C1125   1.410       .  A
C1125      C1126   1.410       .  A
C1125      C1128   1.452       .  S
C1126      C1129   1.453       .  S
C1127      N1134   1.158       .  T
C1128      N1133   1.158       .  T
C1129      N1131   1.157       .  T
C1130      N1132   1.157       .  T
C1135      C1136   1.424       .  A
C1135      C1140   1.409       .  A
C1136      C1137   1.416       .  A
C1136      C1141   1.452       .  S
C1137      C1138   1.409       .  A
C1137      C1144   1.448       .  S
C1138      C1139   1.423   1_545  A
C1139      C1140   1.414   1_565  A
C1139      C1142   1.452       .  S
C1140      C1143   1.451       .  S
C1141      N1148   1.157       .  T
C1142      N1147   1.157       .  T
C1143      N1145   1.157       .  T
C1144      N1146   1.157       .  T
C1149      C1150   1.412       .  A
C1149      C1154   1.412       .  A
C1150      C1151   1.414       .  A
C1150      C1155   1.448       .  S
C1151      C1152   1.414       .  A
C1151      C1158   1.450       .  S
C1152      C1153   1.417       .  A
C1153      C1154   1.408       .  A
C1153      C1156   1.454       .  S
C1154      C1157   1.450       .  S
C1155      N1162   1.157       .  T
C1156      N1161   1.158       .  T
C1157      N1159   1.157       .  T
C1158      N1160   1.157       .  T
C1163      C1164   1.415       .  A
C1163      C1168   1.412       .  A
C1164      C1165   1.417       .  A
C1164      C1169   1.448       .  S
C1165      C1166   1.413       .  A
C1165      C1172   1.450       .  S
C1166      C1167   1.413       .  A
C1167      C1168   1.407       .  A
C1167      C1170   1.449       .  S
C1168      C1171   1.453       .  S
C1169      N1176   1.157       .  T
C1170      N1175   1.156       .  T
C1172      N1174   1.157       .  T
C1177      C1178   1.405       .  A
C1177      C1182   1.410       .  A
C1178      C1179   1.406       .  A
C1178      C1183   1.454       .  S
C1179      C1180   1.430       .  A
C1179      C1186   1.454       .  S
C1180      C1181   1.415       .  A
C1181      C1182   1.411       .  A
C1181      C1184   1.450       .  S
C1182      C1185   1.450       .  S
C1183      N1190   1.158       .  T
C1184      N1189   1.157       .  T
C1185      N1187   1.157       .  T
C1186      N1188   1.158       .  T
C1191      C1192   1.420       .  A
C1191      C1196   1.407       .  A
C1192      C1193   1.415       .  A
C1192      C1197   1.452       .  S
C1193      C1194   1.415       .  A
C1193      C1200   1.450       .  S
C1194      C1195   1.427       .  A
C1195      C1196   1.412       .  A
C1195      C1198   1.450       .  S
C1196      C1199   1.451       .  S
C1197      N1204   1.157       .  T
C1198      N1203   1.156       .  T
C1199      N1201   1.158       .  T
C1200      N1202   1.158       .  T
C1205      C1206   1.417       .  A
C1205      C1210   1.409       .  A
C1206      C1207   1.408       .  A
C1207      C1208   1.411       .  A
C1207      C1214   1.451       .  S
C1208      C1209   1.426       .  A
C1209      C1210   1.414       .  A
C1209      C1212   1.452       .  S
C1210      C1213   1.449       .  S
C1211      N1218   1.157       .  T
C1212      N1217   1.158       .  T
C1213      N1215   1.157       .  T
C1214      N1216   1.157       .  T
C1219      C2452   1.417       .  A
C1219      C2456   1.414       .  A
C1220      C2451   1.416       .  A
C1220      C1841   1.453       .  S
C1221      C1228   1.450       .  S
C1222      C1223   1.422       .  A
C1223      C1224   1.421       .  A
C1223      C1226   1.450   1_565  S
C1224      C2451   1.413       .  A
C1224      C2459   1.450   1_565  S
C1225      C1836   1.453   1_556  S
C1225      N1232   1.158       .  T
C1226      N1231   1.157       .  T
C1227      C2456   1.450       .  S
C1227      N1229   1.157       .  T
C1228      N1230   1.157       .  T
C1233      N1234   1.367       .  A
C1233      N1238   1.372       .  A
C1233      C1294   1.491       .  S
N1234      C1235   1.360       .  A
C1235      N1236   1.358       .  A
C1235      C1961   1.478       .  S
N1236      C1237   1.358       .  A
C1237      N1238   1.368       .  A
O1239      C1255   1.278       .  A
O1239     Zn1245   2.034       .  S
C1240      C1835   1.504       .  S
C1240      O1256   1.289       .  A
C1240      O1253   1.271       .  A
O1241      C1254   1.283   1_565  A
O1241     Cd1248   2.104       .  S
O1242      C1260   1.266       .  A
O1242     Cd1251   2.020       .  S
O1243      C1257   1.282       .  A
O1243     Cd1247   2.114       .  S
O1244      C1255   1.285       .  A
O1244     Cd1247   2.140       .  S
Zn1245     O1256   2.126       .  S
Zn1245     O1258   2.080   1_565  S
Zn1245     O1250   1.914       .  S
O1246      C1257   1.266       .  A
O1246     Cd1251   2.030       .  S
Cd1247     O1249   2.112       .  S
Cd1247     O1250   1.996       .  S
Cd1248     O1252   2.143       .  S
Cd1248     O1261   2.115       .  S
Cd1248     O1250   1.983       .  S
O1249      C1259   1.284       .  A
O1250     Cd1251   1.948       .  S
Cd1251     O1253   2.032       .  S
O1252      C1259   1.290       .  A
C1254      O1258   1.287       .  A
C1255      C1956   1.487   1_554  S
C1257      C1824   1.499       .  S
C1259      C1268   1.498   1_655  S
C1260      C1810   1.507   1_565  S
C1260      O1261   1.279       .  A
C1262      N1263   1.369       .  A
C1262      N1883   1.360   1_554  A
C1262      C1779   1.488       .  S
N1263      C1264   1.367       .  A
C1264      N1881   1.352       .  A
C1264      C1821   1.497       .  S
N1265      C1880   1.351       .  A
N1265      C1266   1.347       .  A
C1266      N1267   1.353       .  A
C1266      C1793   1.472       .  S
N1267      C1878   1.359       .  A
C1268      N1269   1.376       .  A
C1268      N1273   1.369   1_455  A
N1269      C1270   1.370       .  A
C1270      N1271   1.352       .  A
C1270      C1289   1.487       .  S
N1271      C1272   1.350       .  A
C1272      N1273   1.363   1_455  A
C1272      C1310   1.471   1_455  S
O1274      C1290   1.277       .  A
O1274     Zn1280   2.023       .  S
C1275      C1768   1.490       .  S
C1275      O1291   1.282       .  A
C1275      O1288   1.269       .  A
O1276      C1289   1.282       .  A
O1276     Cd1283   2.115       .  S
O1277      C1295   1.262       .  A
O1277     Cd1286   1.996       .  S
O1278      C1292   1.284       .  A
O1278     Cd1282   2.143       .  S
O1279      C1290   1.287       .  A
O1279     Cd1282   2.154       .  S
Zn1280     O1291   2.085       .  S
Zn1280     O1293   2.053       .  S
Zn1280     O1285   1.907       .  S
O1281      C1292   1.264       .  A
O1281     Cd1286   2.026       .  S
Cd1282     O1284   2.123       .  S
Cd1282     O1285   2.005       .  S
Cd1283     O1287   2.119       .  S
Cd1283     O1296   2.121       .  S
Cd1283     O1285   1.992       .  S
O1284      C1294   1.287       .  A
O1285     Cd1286   1.931       .  S
Cd1286     O1288   2.009       .  S
O1287      C1294   1.289       .  A
C1289      O1293   1.283       .  A
C1290      C1307   1.489       .  S
C1292      C1751   1.503       .  S
C1295      C1737   1.506       .  S
C1295      O1296   1.280       .  A
C1297      N1298   1.376       .  A
C1297      N1302   1.359       .  A
C1297      C1709   1.497       .  S
N1298      C1299   1.373       .  A
C1299      N1300   1.348       .  A
C1299      C1754   1.500       .  S
N1300      C1301   1.342       .  A
C1301      N1302   1.352       .  A
C1301      C1723   1.462       .  S
C1303      N1304   1.373       .  A
C1303      N1308   1.374       .  A
C1303      C1365   1.497       .  S
N1304      C1305   1.367       .  A
C1305      N1306   1.358       .  A
C1305      C1324   1.489   1_455  S
N1306      C1307   1.354       .  A
C1307      N1308   1.365       .  A
O1309      C1325   1.279       .  A
O1309     Zn1315   2.078       .  S
C1310      O1326   1.279       .  A
C1310      O1323   1.282       .  A
O1311      C1324   1.285       .  A
O1311     Cd1318   2.141       .  S
O1312      C1330   1.285       .  A
O1312     Cd1321   2.107       .  S
O1313      C1327   1.262       .  A
O1313     Cd1317   2.024       .  S
O1314      C1325   1.267       .  A
O1314     Cd1317   2.033       .  S
Zn1315     O1326   2.021       .  S
Zn1315     O1328   2.022       .  S
Zn1315     O1320   1.899       .  S
O1316      C1327   1.278       .  A
O1316     Cd1321   2.104       .  S
Cd1317     O1319   1.978       .  S
Cd1317     O1320   1.938       .  S
Cd1318     O1322   2.124       .  S
Cd1318     O1331   2.123       .  S
Cd1318     O1320   1.995       .  S
O1319      C1329   1.260       .  A
O1320     Cd1321   1.990       .  S
Cd1321     O1323   2.108       .  S
O1322      C1329   1.282       .  A
C1324      O1328   1.278       .  A
C1325      C1695   1.486       .  S
C1327      C1681   1.479       .  S
C1329      C1796   1.496       .  S
C1330      C1338   1.488   1_655  S
C1330      O1331   1.288       .  A
C1332      N1333   1.369   1_545  A
C1332      N1337   1.368       .  A
C1332      C1667   1.508       .  S
N1333      C1334   1.360       .  A
C1334      N1335   1.343   1_565  A
C1334      C1684   1.475       .  S
N1335      C1336   1.345       .  A
C1336      N1337   1.363       .  A
C1336      C1807   1.488       .  S
C1338      N1339   1.367   1_455  A
C1338      N1343   1.370       .  A
N1339      C1340   1.361       .  A
C1340      N1341   1.358   1_655  A
C1340      C1871   1.482       .  S
N1341      C1342   1.360       .  A
C1342      N1343   1.365       .  A
C1342      C1359   1.488       .  S
O1344      C1360   1.285       .  A
C1345      C1851   1.476       .  S
C1345      O1361   1.277       .  A
C1345      O1358   1.285       .  A
O1346      C1359   1.286       .  A
O1347      C1365   1.286       .  A
O1347     Cd1356   2.125       .  S
O1348      C1362   1.264       .  A
O1348     Cd1352   2.020       .  S
O1349     Cd1352   2.019       .  S
Zn1350     O1361   2.017       .  S
Zn1350     O1355   1.919       .  S
O1351      C1362   1.281       .  A
O1351     Cd1356   2.124       .  S
Cd1352     O1354   1.981       .  S
Cd1352     O1355   1.926       .  S
Cd1353     O1357   2.105       .  S
Cd1353     O1366   2.124       .  S
Cd1353     O1355   1.998       .  S
O1354      C1364   1.263       .  A
O1355     Cd1356   1.999       .  S
Cd1356     O1358   2.126       .  S
O1357      C1364   1.278       .  A
C1359      O1363   1.281       .  A
C1360      C1656   1.499       .  S
C1362      C1642   1.491       .  S
C1364      C1726   1.477       .  S
C1365      O1366   1.285       .  A
C1367      N1984   1.361       .  A
C1367      N1372   1.368       .  A
C1367      C1625   1.499       .  S
N1368      C1983   1.361   1_554  A
N1368      C1369   1.359       .  A
C1369      N1370   1.353   1_554  A
C1369      C1740   1.493       .  S
N1370      C1987   1.353       .  A
C1371      N1986   1.354       .  A
C1371      N1372   1.367       .  A
C1371      C1639   1.495       .  S
C1373      N1374   1.370       .  A
C1373      N1378   1.377       .  A
C1373      C1435   1.503       .  S
N1374      C1375   1.365       .  A
C1375      N1376   1.354       .  A
C1375      C2081   1.480       .  S
N1376      C1377   1.356       .  A
C1377      N1378   1.371       .  A
C1377      C1394   1.495       .  S
O1379      C1395   1.281       .  A
O1379     Zn1385   2.081       .  S
C1380      C2063   1.480   1_554  S
C1380      O1396   1.279       .  A
C1380      O1393   1.282       .  A
O1381      C1394   1.284       .  A
O1381     Cd1388   2.133       .  S
O1382      C1400   1.285       .  A
O1382     Cd1391   2.106       .  S
O1383      C1397   1.264       .  A
O1383     Cd1387   2.027       .  S
O1384      C1395   1.268       .  A
O1384     Cd1387   2.025       .  S
Zn1385     O1396   2.038       .  S
Zn1385     O1398   2.051       .  S
Zn1385     O1390   1.924       .  S
O1386      C1397   1.277       .  A
O1386     Cd1391   2.098       .  S
Cd1387     O1389   2.014       .  S
Cd1387     O1390   1.973       .  S
Cd1388     O1392   2.109       .  S
Cd1388     O1401   2.130       .  S
Cd1388     O1390   1.994       .  S
O1389      C1399   1.265       .  A
O1390     Cd1391   1.996       .  S
Cd1391     O1393   2.116       .  S
O1392      C1399   1.278       .  A
C1394      O1398   1.281       .  A
C1395      C1782   1.483       .  S
C1397      C1611   1.484       .  S
C1399      C1600   1.494       .  S
C1400      C1408   1.490       .  S
C1400      O1401   1.288       .  A
C1402      N1403   1.371       .  A
C1402      N2023   1.370   1_554  A
C1402      C1838   1.515       .  S
N1403      C1404   1.362       .  A
C1404      N2021   1.343       .  A
C1404      C1614   1.481       .  S
N1405      C2020   1.344       .  A
N1405      C1406   1.344       .  A
C1406      N1407   1.364       .  A
C1406      C1583   1.493       .  S
N1407      C2018   1.370       .  A
C1408      N1409   1.371       .  A
C1408      N1413   1.370       .  A
N1409      C1410   1.365       .  A
C1410      N1411   1.357       .  A
C1410      C1500   1.483       .  S
N1411      C1412   1.356       .  A
C1412      N1413   1.364       .  A
O1414      C1430   1.283       .  A
O1414     Zn1420   2.093       .  S
C1415      C1482   1.486       .  S
C1415      O1431   1.278       .  A
C1415      O1428   1.285       .  A
O1416      C1429   1.286   1_565  A
O1416     Cd1423   2.131       .  S
O1417      C1435   1.285       .  A
O1417     Cd1426   2.115       .  S
O1418      C1432   1.267       .  A
O1418     Cd1422   2.027       .  S
O1419      C1430   1.267       .  A
O1419     Cd1422   2.018       .  S
Zn1420     O1431   2.030       .  S
Zn1420     O1433   2.045   1_565  S
Zn1420     O1425   1.918       .  S
O1421      C1432   1.282       .  A
O1421     Cd1426   2.123       .  S
Cd1422     O1424   2.015       .  S
Cd1422     O1425   1.946       .  S
Cd1423     O1427   2.142       .  S
Cd1423     O1436   2.162       .  S
Cd1423     O1425   1.996       .  S
O1424      C1434   1.265       .  A
O1425     Cd1426   2.000       .  S
Cd1426     O1428   2.139       .  S
O1427      C1434   1.283       .  A
C1429      O1433   1.281       .  A
C1430      C1712   1.489       .  S
C1432      C1569   1.493       .  S
C1434      C1555   1.518   1_565  S
C1435      O1436   1.294       .  A
C1437      N1438   1.368       .  A
C1437      N1442   1.358       .  A
C1437      C1765   1.489       .  S
N1438      C1439   1.366       .  A
C1439      N1440   1.354       .  A
C1439      C1572   1.496       .  S
N1440      C1441   1.351       .  A
C1441      N1442   1.354       .  A
C1441      C1544   1.482       .  S
C1443      N1444   1.378       .  A
C1443      N1448   1.372       .  A
C1443      C1504   1.506       .  S
N1444      C1445   1.371       .  A
C1445      N1446   1.354       .  A
C1445      C1464   1.494       .  S
N1446      C1447   1.353       .  A
C1447      N1448   1.367       .  A
C1447      C1996   1.481       .  S
O1449      C1465   1.278       .  A
O1449     Zn1455   2.027       .  S
C1450      C1628   1.488       .  S
C1450      O1466   1.282       .  A
C1450      O1463   1.269       .  A
O1451      C1464   1.284       .  A
O1451     Cd1458   2.132       .  S
O1452      C1470   1.264       .  A
O1452     Cd1461   1.996       .  S
O1453      C1467   1.279       .  A
O1453     Cd1457   2.101       .  S
O1454      C1465   1.284       .  A
O1454     Cd1457   2.129       .  S
Zn1455     O1466   2.091       .  S
Zn1455     O1468   2.053       .  S
Zn1455     O1460   1.923       .  S
O1456      C1467   1.264       .  A
O1456     Cd1461   2.029       .  S
Cd1457     O1459   2.115       .  S
Cd1457     O1460   1.997       .  S
Cd1458     O1462   2.141       .  S
Cd1458     O1471   2.106       .  S
Cd1458     O1460   1.999       .  S
O1459      C1469   1.286       .  A
O1460     Cd1461   1.965       .  S
Cd1461     O1463   2.035       .  S
O1462      C1469   1.290       .  A
C1464      O1468   1.282       .  A
C1465      C1991   1.481       .  S
C1467      C1527   1.491       .  S
C1469      C1478   1.497       .  S
C1470      C1541   1.495       .  S
C1470      O1471   1.278       .  A
C1472      N2089   1.368       .  A
C1472      N1477   1.373   1_545  A
C1472      C1653   1.514       .  S
N1473      C2088   1.369   1_554  A
N1473      C1474   1.361       .  A
C1474      N1475   1.341       .  A
C1474      C1558   1.492       .  S
N1475      C2092   1.344   1_544  A
C1476      N2091   1.344   1_565  A
C1476      N1477   1.364       .  A
C1476      C1530   1.485       .  S
C1478      N1479   1.372       .  A
C1478      N1483   1.372       .  A
N1479      C1480   1.366       .  A
C1480      N1481   1.356       .  A
C1480      C1499   1.488       .  S
N1481      C1482   1.357       .  A
C1482      N1483   1.366       .  A
O1484      C1500   1.276       .  A
O1484     Zn1490   2.014       .  S
C1485      C1670   1.495       .  S
C1485      O1501   1.284       .  A
O1486      C1499   1.286       .  A
O1487      C1505   1.265       .  A
O1487     Cd1496   2.015       .  S
O1488      C1502   1.283       .  A
O1488     Cd1492   2.123       .  S
O1489      C1500   1.286       .  A
O1489     Cd1492   2.145       .  S
Zn1490     O1495   1.915       .  S
O1491      C1502   1.265       .  A
O1491     Cd1496   2.021       .  S
Cd1492     O1494   2.114       .  S
Cd1492     O1495   2.004       .  S
Cd1493     O1497   2.168       .  S
Cd1493     O1506   2.137       .  S
Cd1493     O1495   1.990       .  S
O1494      C1504   1.285       .  A
O1495     Cd1496   1.932       .  S
Cd1496     O1498   2.030       .  S
O1497      C1504   1.294       .  A
C1499      O1503   1.283       .  A
C1502      C1513   1.483       .  S
C1505      C1586   1.515       .  S
C1505      O1506   1.283       .  A
C1507      N1508   1.368       .  A
C1507      N1512   1.367       .  A
C1507      C1698   1.523       .  S
N1508      C1509   1.362       .  A
C1509      N1510   1.345       .  A
C1509      C1597   1.489       .  S
N1510      C1511   1.344       .  A
C1511      N1512   1.360       .  A
C1511      C1516   1.477       .  S
C1513      C1514   1.418       .  A
C1513      C1518   1.408       .  A
C1514      C1515   1.407       .  A
C1514      C1519   1.452       .  S
C1515      C1516   1.411       .  A
C1515      C1522   1.452       .  S
C1516      C1517   1.415       .  A
C1517      C1518   1.411       .  A
C1517      C1520   1.450       .  S
C1518      C1521   1.450       .  S
C1519      N1526   1.157       .  T
C1520      N1525   1.157       .  T
C1521      N1523   1.157       .  T
C1522      N1524   1.157       .  T
C1527      C1528   1.414       .  A
C1527      C1532   1.423       .  A
C1528      C1529   1.402       .  A
C1528      C1533   1.454       .  S
C1529      C1530   1.417       .  A
C1529      C2152   1.456       .  S
C1530      C1531   1.408       .  A
C1531      C1532   1.419       .  A
C1531      C1534   1.449       .  S
C1532      C1535   1.450       .  S
C1533      N2156   1.158       .  T
C1534      N1539   1.157       .  T
C1535      N1537   1.158       .  T
C1536      C2145   1.455   1_554  S
C1536      N1538   1.157       .  T
N1540      C2149   1.158   1_554  T
C1541      C1542   1.414       .  A
C1541      C1546   1.427       .  A
C1542      C1543   1.410       .  A
C1542      C1547   1.449       .  S
C1543      C1544   1.411       .  A
C1543      C1550   1.448       .  S
C1544      C1545   1.409       .  A
C1545      C1546   1.405       .  A
C1545      C1548   1.453       .  S
C1546      C1549   1.454       .  S
C1547      N1554   1.157       .  T
C1548      N1553   1.158       .  T
C1549      N1551   1.157       .  T
C1550      N1552   1.157       .  T
C1555      C1556   1.433       .  A
C1555      C1560   1.419       .  A
C1556      C1557   1.413       .  A
C1556      C1561   1.451   1_545  S
C1557      C1558   1.407       .  A
C1557      C1564   1.453       .  S
C1558      C1559   1.416       .  A
C1559      C1560   1.416       .  A
C1559      C1562   1.451       .  S
C1560      C1563   1.450       .  S
C1561      N1568   1.157       .  T
C1562      N1567   1.157       .  T
C1563      N1565   1.158       .  T
C1564      N1566   1.157       .  T
C1569      C1570   1.423       .  A
C1569      C1574   1.409       .  A
C1570      C1571   1.414       .  A
C1570      C1575   1.451       .  S
C1571      C1572   1.410       .  A
C1571      C1578   1.449       .  S
C1572      C1573   1.416       .  A
C1573      C1574   1.410       .  A
C1573      C1576   1.448       .  S
C1574      C1577   1.450       .  S
C1575      N1582   1.157       .  T
C1576      N1581   1.156       .  T
C1577      N1579   1.157       .  T
C1578      N1580   1.157       .  T
C1583      C1584   1.415       .  A
C1583      C1588   1.405       .  A
C1584      C1585   1.415       .  A
C1585      C1586   1.419       .  A
C1586      C1587   1.433       .  A
C1587      C1588   1.414       .  A
C1587      C1590   1.451       .  S
C1588      C1591   1.451       .  S
C1589      N1596   1.157       .  T
C1590      N1595   1.157       .  T
C1591      N1593   1.157       .  T
C1592      N1594   1.158       .  T
C1597      C1598   1.410       .  A
C1597      C1602   1.418       .  A
C1598      C1599   1.410       .  A
C1598      C1603   1.452       .  S
C1599      C1600   1.425       .  A
C1599      C1606   1.453       .  S
C1600      C1601   1.411       .  A
C1601      C1602   1.411       .  A
C1601      C1604   1.451       .  S
C1602      C1605   1.451       .  S
C1603      N1610   1.158       .  T
C1604      N1609   1.157       .  T
C1605      N1607   1.157       .  T
C1606      N1608   1.157       .  T
C1611      C1612   1.411       .  A
C1611      C1616   1.419       .  A
C1612      C1613   1.403       .  A
C1612      C1617   1.454       .  S
C1613      C1614   1.418       .  A
C1613      C2236   1.456   1_554  S
C1614      C1615   1.408       .  A
C1615      C1616   1.417       .  A
C1615      C1618   1.449       .  S
C1616      C1619   1.450       .  S
C1617      N2240   1.158   1_554  T
C1618      N1623   1.157       .  T
C1619      N1621   1.157       .  T
C1620      C2229   1.456       .  S
C1620      N1622   1.157       .  T
N1624      C2233   1.158       .  T
C1625      C1626   1.417       .  A
C1625      C1630   1.417       .  A
C1626      C1627   1.417       .  A
C1626      C1631   1.448       .  S
C1627      C1628   1.411       .  A
C1627      C1634   1.450       .  S
C1628      C1629   1.410       .  A
C1629      C1630   1.411       .  A
C1629      C1632   1.448       .  S
C1630      C2249   1.451       .  S
C1631      N1638   1.157       .  T
C1632      N1637   1.156       .  T
C1633      C2246   1.451       .  S
C1633      N1635   1.157       .  T
C1634      N1636   1.157       .  T
C1639      C1640   1.404       .  A
C1639      C1644   1.414       .  A
C1640      C1641   1.410       .  A
C1640      C1645   1.448       .  S
C1641      C1642   1.424       .  A
C1641      C1648   1.451       .  S
C1642      C1643   1.410       .  A
C1643      C1644   1.411       .  A
C1643      C1646   1.450       .  S
C1644      C1647   1.447       .  S
C1645      N1652   1.157       .  T
C1646      N1651   1.157       .  T
C1647      N2265   1.157       .  T
C1648      N1650   1.157       .  T
N1649      C2263   1.157       .  T
C1653      C1654   1.423   1_545  A
C1653      C1658   1.423       .  A
C1654      C1655   1.420       .  A
C1654      C1659   1.451       .  S
C1655      C1656   1.413   1_565  A
C1655      C1662   1.450       .  S
C1657      C1660   1.454       .  S
C1659      N1666   1.158       .  T
C1660      N1665   1.158       .  T
C1661      N1663   1.158       .  T
C1662      N1664   1.157       .  T
C1667      C1668   1.421   1_545  A
C1667      C1672   1.420       .  A
C1668      C1669   1.417       .  A
C1668      C1673   1.451       .  S
C1669      C1670   1.412   1_565  A
C1669      C1676   1.451       .  S
C1670      C1671   1.415       .  A
C1671      C1672   1.414       .  A
C1671      C1674   1.453       .  S
C1672      C1675   1.451       .  S
C1673      N1680   1.157       .  T
C1675      N1677   1.158       .  T
C1676      N1678   1.157       .  T
C1681      C1682   1.416       .  A
C1681      C1686   1.413       .  A
C1682      C1683   1.415       .  A
C1682      C1687   1.449       .  S
C1683      C1684   1.408       .  A
C1683      C1690   1.449       .  S
C1684      C1685   1.415       .  A
C1685      C1686   1.403       .  A
C1685      C1688   1.455       .  S
C1686      C1689   1.454       .  S
C1687      N1694   1.157       .  T
C1688      N1693   1.157       .  T
C1689      N1691   1.157       .  T
C1690      N1692   1.157   1_565  T
C1695      C1696   1.407       .  A
C1695      C1700   1.405       .  A
C1696      C1697   1.415       .  A
C1696      C1701   1.454       .  S
C1697      C1698   1.432       .  A
C1697      C1704   1.451       .  S
C1698      C1699   1.431       .  A
C1699      C1700   1.416       .  A
C1699      C1702   1.451       .  S
C1700      C1703   1.452       .  S
C1701      N1708   1.157       .  T
C1702      N1707   1.158       .  T
C1703      N1705   1.157       .  T
C1704      N1706   1.158       .  T
C1709      C1710   1.414       .  A
C1709      C1714   1.417       .  A
C1710      C1715   1.447       .  S
C1711      C1712   1.413       .  A
C1711      C1718   1.450   1_565  S
C1713      C1714   1.411       .  A
C1713      C1716   1.453       .  S
C1714      C1717   1.451       .  S
C1716      N1721   1.157       .  T
C1717      N1719   1.157       .  T
C1718      N1720   1.157       .  T
C1723      C1724   1.407       .  A
C1723      C1728   1.413       .  A
C1724      C1725   1.396       .  A
C1724      C1729   1.455       .  S
C1725      C1726   1.417       .  A
C1725      C1732   1.455       .  S
C1726      C1727   1.411       .  A
C1727      C1728   1.412       .  A
C1727      C1730   1.449       .  S
C1728      C1731   1.450       .  S
C1729      N1736   1.157       .  T
C1732      N1734   1.157       .  T
C1737      C1738   1.415       .  A
C1737      C1742   1.429       .  A
C1738      C1739   1.412       .  A
C1738      C1743   1.450       .  S
C1739      C1740   1.414       .  A
C1739      C1746   1.449       .  S
C1740      C1741   1.411       .  A
C1741      C1742   1.410       .  A
C1741      C1744   1.453       .  S
C1742      C1745   1.454       .  S
C1743      N1750   1.157       .  T
C1744      N1749   1.158       .  T
C1745      N1747   1.158       .  T
C1746      N1748   1.157       .  T
C1751      C1752   1.426       .  A
C1751      C1756   1.410       .  A
C1752      C1753   1.417       .  A
C1752      C1757   1.452       .  S
C1753      C1754   1.408       .  A
C1753      C1760   1.447       .  S
C1754      C1755   1.421       .  A
C1755      C1756   1.413       .  A
C1755      C1758   1.452       .  S
C1756      C1759   1.450       .  S
C1757      N1764   1.157       .  T
C1758      N1763   1.157       .  T
C1759      N1761   1.157       .  T
C1760      N1762   1.156       .  T
C1765      C1766   1.414       .  A
C1765      C1770   1.413       .  A
C1766      C1767   1.416       .  A
C1766      C1771   1.448       .  S
C1767      C1768   1.414       .  A
C1767      C1774   1.450       .  S
C1768      C1769   1.416       .  A
C1769      C1770   1.408       .  A
C1769      C1772   1.453       .  S
C1770      C1773   1.451       .  S
C1771      N1778   1.157       .  T
C1772      N1777   1.157       .  T
C1773      N1775   1.157       .  T
C1774      N1776   1.157       .  T
C1779      C1780   1.415       .  A
C1779      C1784   1.414       .  A
C1780      C1781   1.417       .  A
C1780      C1785   1.449       .  S
C1781      C1782   1.412       .  A
C1781      C1788   1.450       .  S
C1782      C1783   1.410       .  A
C1783      C1784   1.407       .  A
C1783      C1786   1.449   1_554  S
C1784      C1787   1.453   1_554  S
C1785      N1792   1.157       .  T
C1786      N1791   1.156       .  T
C1787      N2405   1.157       .  T
C1788      N1790   1.157       .  T
N1789      C2403   1.157       .  T
C1793      C1794   1.405       .  A
C1793      C1798   1.409       .  A
C1794      C1795   1.405       .  A
C1794      C1799   1.454       .  S
C1795      C1796   1.431       .  A
C1795      C1802   1.455       .  S
C1796      C1797   1.414       .  A
C1797      C1798   1.409       .  A
C1797      C1800   1.450       .  S
C1798      C1801   1.450       .  S
C1799      N1806   1.158       .  T
C1800      N1805   1.157       .  T
C1801      N1803   1.157       .  T
C1802      N1804   1.158       .  T
C1807      C1808   1.415       .  A
C1807      C1812   1.403       .  A
C1808      C1809   1.413       .  A
C1808      C1813   1.451       .  S
C1809      C1810   1.419       .  A
C1809      C1816   1.450       .  S
C1810      C1811   1.431       .  A
C1811      C1812   1.411       .  A
C1811      C1814   1.451   1_545  S
C1812      C1815   1.452       .  S
C1813      N1820   1.157       .  T
C1814      N1819   1.157       .  T
C1815      N1817   1.158       .  T
C1816      N1818   1.158       .  T
C1821      C1822   1.418       .  A
C1821      C1826   1.410       .  A
C1822      C1823   1.408       .  A
C1822      C2443   1.450       .  S
C1823      C1824   1.411       .  A
C1823      C1830   1.452       .  S
C1824      C1825   1.426       .  A
C1825      C1826   1.415       .  A
C1825      C1828   1.452       .  S
C1826      C1829   1.449       .  S
C1827      C2438   1.450       .  S
C1827      N1834   1.157       .  T
C1828      N1833   1.158       .  T
C1829      N1831   1.157       .  T
C1830      N1832   1.157       .  T
C1836      C2453   1.416   1_554  A
C1837      C2452   1.415       .  A
C1837      C2454   1.418       .  A
C1837      C1844   1.451       .  S
C1838      C2453   1.421   1_554  A
C1838      C1839   1.423       .  A
C1839      C1840   1.421       .  A
C1839      C1842   1.451       .  S
C1841      N1848   1.158       .  T
C1842      N1847   1.158       .  T
C1843      N1845   1.157       .  T
C1844      N1846   1.157       .  T
C1849      N1850   1.367       .  A
C1849      N1854   1.370       .  A
C1849      C1910   1.489       .  S
N1850      C1851   1.361       .  A
C1851      N1852   1.358       .  A
N1852      C1853   1.358       .  A
C1853      N1854   1.367       .  A
O1855      C1871   1.277       .  A
O1855     Zn1861   2.024       .  S
C1856      C2451   1.501       .  S
C1856      O1872   1.287       .  A
C1856      O1869   1.271       .  A
O1857      C1870   1.284   1_565  A
O1857     Cd1864   2.109       .  S
O1858      C1876   1.265       .  A
O1858     Cd1867   2.015       .  S
O1859      C1873   1.281       .  A
O1859     Cd1863   2.119       .  S
O1860      C1871   1.285       .  A
O1860     Cd1863   2.133       .  S
Zn1861     O1872   2.116       .  S
Zn1861     O1874   2.066   1_565  S
Zn1861     O1866   1.914       .  S
O1862      C1873   1.264       .  A
O1862     Cd1867   2.022       .  S
Cd1863     O1865   2.116       .  S
Cd1863     O1866   2.003       .  S
Cd1864     O1868   2.142       .  S
Cd1864     O1877   2.119       .  S
Cd1864     O1866   1.982       .  S
O1865      C1875   1.285       .  A
O1866     Cd1867   1.945       .  S
Cd1867     O1869   2.036       .  S
O1868      C1875   1.290       .  A
C1870      O1874   1.285       .  A
C1873      C2440   1.490       .  S
C1875      C1884   1.498   1_655  S
C1876      C2426   1.505       .  S
C1876      O1877   1.280       .  A
C1878      N1879   1.368       .  A
C1878      C2395   1.482       .  S
N1879      C1880   1.365       .  A
C1880      C2437   1.488       .  S
N1881      C1882   1.347   1_554  A
C1882      N1883   1.352       .  A
C1882      C2409   1.473       .  S
C1884      N1885   1.376       .  A
C1884      N1889   1.369   1_455  A
N1885      C1886   1.371       .  A
C1886      N1887   1.355       .  A
C1886      C1905   1.491       .  S
N1887      C1888   1.353       .  A
C1888      N1889   1.363   1_455  A
C1888      C1926   1.475   1_455  S
O1890      C1906   1.278       .  A
O1890     Zn1896   2.025       .  S
C1891      C2384   1.492       .  S
C1891      O1907   1.284       .  A
C1891      O1904   1.269       .  A
O1892      C1905   1.282       .  A
O1892     Cd1899   2.118       .  S
O1893      C1911   1.261       .  A
O1893     Cd1902   1.991       .  S
O1894      C1908   1.284       .  A
O1894     Cd1898   2.150       .  S
O1895      C1906   1.289       .  A
O1895     Cd1898   2.159       .  S
Zn1896     O1907   2.090       .  S
Zn1896     O1909   2.060       .  S
Zn1896     O1901   1.903       .  S
O1897      C1908   1.263       .  A
O1897     Cd1902   2.023       .  S
Cd1898     O1900   2.124       .  S
Cd1898     O1901   2.001       .  S
Cd1899     O1903   2.116       .  S
Cd1899     O1912   2.123       .  S
Cd1899     O1901   1.988       .  S
O1900      C1910   1.288       .  A
O1901     Cd1902   1.932       .  S
Cd1902     O1904   2.012       .  S
O1903      C1910   1.288       .  A
C1905      O1909   1.283       .  A
C1906      C1923   1.491       .  S
C1908      C2367   1.501       .  S
C1911      C2353   1.505       .  S
C1911      O1912   1.280       .  A
C1913      N1914   1.375       .  A
C1913      N1918   1.358       .  A
C1913      C2325   1.491       .  S
N1914      C1915   1.371       .  A
C1915      N1916   1.348       .  A
C1915      C2370   1.496       .  S
N1916      C1917   1.342       .  A
C1917      N1918   1.352       .  A
C1917      C2339   1.461       .  S
C1919      N1920   1.370       .  A
C1919      N1924   1.374       .  A
C1919      C1981   1.491       .  S
N1920      C1921   1.364       .  A
C1921      N1922   1.360       .  A
C1921      C1940   1.488   1_455  S
N1922      C1923   1.357       .  A
C1923      N1924   1.365       .  A
O1925      C1941   1.279       .  A
O1925     Zn1931   2.074       .  S
C1926      O1942   1.277       .  A
C1926      O1939   1.285       .  A
O1927      C1940   1.287       .  A
O1927     Cd1934   2.144       .  S
O1928      C1946   1.286       .  A
O1928     Cd1937   2.120       .  S
O1929      C1943   1.261       .  A
O1929     Cd1933   2.021       .  S
O1930      C1941   1.267       .  A
O1930     Cd1933   2.034       .  S
Zn1931     O1942   2.012       .  S
Zn1931     O1944   2.016       .  S
Zn1931     O1936   1.903       .  S
O1932      C1943   1.279       .  A
O1932     Cd1937   2.107       .  S
Cd1933     O1935   1.988       .  S
Cd1933     O1936   1.936       .  S
Cd1934     O1938   2.124       .  S
Cd1934     O1947   2.127       .  S
Cd1934     O1936   1.991       .  S
O1935      C1945   1.262       .  A
O1936     Cd1937   1.993       .  S
Cd1937     O1939   2.126       .  S
O1938      C1945   1.282       .  A
C1940      O1944   1.277       .  A
C1941      C2311   1.485       .  S
C1943      C2297   1.478       .  S
C1945      C2412   1.490       .  S
C1946      C1954   1.495   1_655  S
C1946      O1947   1.287       .  A
C1948      N1949   1.368   1_545  A
C1948      N1953   1.369       .  A
C1948      C2283   1.505       .  S
N1949      C1950   1.359       .  A
C1950      N1951   1.342   1_565  A
C1950      C2300   1.474       .  S
N1951      C1952   1.345       .  A
C1952      N1953   1.364       .  A
C1952      C2423   1.495       .  S
C1954      N1955   1.371   1_455  A
C1954      N1959   1.371       .  A
N1955      C1956   1.365       .  A
C1956      N1957   1.358   1_655  A
N1957      C1958   1.359       .  A
C1958      N1959   1.366       .  A
C1958      C1975   1.489       .  S
O1960      C1976   1.286       .  A
C1961      O1977   1.278   1_554  A
C1961      O1974   1.286   1_554  A
O1962      C1975   1.285       .  A
O1963      C1981   1.286       .  A
O1963     Cd1972   2.123       .  S
O1964      C1978   1.263       .  A
O1964     Cd1968   2.019       .  S
O1965     Cd1968   2.022       .  S
Zn1966     O1977   2.018       .  S
Zn1966     O1971   1.915       .  S
O1967      C1978   1.282       .  A
O1967     Cd1972   2.135       .  S
Cd1968     O1970   1.985       .  S
Cd1968     O1971   1.924       .  S
Cd1969     O1973   2.095       .  S
Cd1969     O1982   2.111       .  S
Cd1969     O1971   1.994       .  S
O1970      C1980   1.264       .  A
O1971     Cd1972   2.002       .  S
Cd1972     O1974   2.133       .  S
O1973      C1980   1.277       .  A
C1975      O1979   1.283       .  A
C1976      C2272   1.502       .  S
C1978      C2258   1.490       .  S
C1980      C2342   1.474       .  S
C1981      O1982   1.284       .  A
C1983      N1988   1.366       .  A
C1983      C2241   1.493       .  S
N1984      C1985   1.357       .  A
C1985      N1986   1.351       .  A
C1985      C2356   1.490       .  S
C1987      N1988   1.364       .  A
C1987      C2255   1.491       .  S
C1989      N1990   1.371       .  A
C1989      N1994   1.376       .  A
C1989      C2051   1.502       .  S
N1990      C1991   1.366       .  A
C1991      N1992   1.355       .  A
N1992      C1993   1.355       .  A
C1993      N1994   1.370       .  A
C1993      C2010   1.493       .  S
O1995      C2011   1.280       .  A
O1995     Zn2001   2.067       .  S
C1996      O2012   1.278       .  A
C1996      O2009   1.283       .  A
O1997      C2010   1.284       .  A
O1997     Cd2004   2.132       .  S
O1998      C2016   1.285       .  A
O1998     Cd2007   2.101       .  S
O1999      C2013   1.265       .  A
O1999     Cd2003   2.032       .  S
O2000      C2011   1.269       .  A
O2000     Cd2003   2.020       .  S
Zn2001     O2012   2.032       .  S
Zn2001     O2014   2.047       .  S
Zn2001     O2006   1.914       .  S
O2002      C2013   1.276       .  A
O2002     Cd2007   2.088       .  S
Cd2003     O2005   2.017       .  S
Cd2003     O2006   1.968       .  S
Cd2004     O2008   2.112       .  S
Cd2004     O2017   2.134       .  S
Cd2004     O2006   1.991       .  S
O2005      C2015   1.266       .  A
O2006     Cd2007   1.992       .  S
Cd2007     O2009   2.122       .  S
O2008      C2015   1.279       .  A
C2010      O2014   1.281       .  A
C2011      C2398   1.482       .  S
C2013      C2227   1.488       .  S
C2015      C2216   1.501       .  S
C2016      C2024   1.491       .  S
C2016      O2017   1.289       .  A
C2018      N2019   1.371       .  A
C2018      C2454   1.510       .  S
N2019      C2020   1.363       .  A
C2020      C2230   1.484       .  S
N2021      C2022   1.343   1_554  A
C2022      N2023   1.364       .  A
C2022      C2199   1.495       .  S
C2024      N2025   1.373       .  A
C2024      N2029   1.369       .  A
N2025      C2026   1.367       .  A
C2026      N2027   1.358       .  A
C2026      C2116   1.487       .  S
N2027      C2028   1.357       .  A
C2028      N2029   1.362       .  A
O2030      C2046   1.284       .  A
O2030     Zn2036   2.104       .  S
C2031      C2098   1.484       .  S
C2031      O2047   1.278       .  A
C2031      O2044   1.285       .  A
O2032      C2045   1.284   1_565  A
O2032     Cd2039   2.117       .  S
O2033      C2051   1.285       .  A
O2033     Cd2042   2.116       .  S
O2034      C2048   1.266       .  A
O2034     Cd2038   2.023       .  S
O2035      C2046   1.269       .  A
O2035     Cd2038   2.024       .  S
Zn2036     O2047   2.028       .  S
Zn2036     O2049   2.051       .  S
Zn2036     O2041   1.914       .  S
O2037      C2048   1.282       .  A
O2037     Cd2042   2.121       .  S
Cd2038     O2040   2.006       .  S
Cd2038     O2041   1.937       .  S
Cd2039     O2043   2.132       .  S
Cd2039     O2052   2.156       .  S
Cd2039     O2041   1.991       .  S
O2040      C2050   1.264       .  A
O2041     Cd2042   1.998       .  S
Cd2042     O2044   2.136       .  S
O2043      C2050   1.281       .  A
C2045      O2049   1.282   1_545  A
C2046      C2328   1.496       .  S
C2048      C2185   1.491       .  S
C2050      C2171   1.512   1_565  S
C2051      O2052   1.293       .  A
C2053      N2054   1.368       .  A
C2053      N2058   1.359       .  A
C2053      C2381   1.493       .  S
N2054      C2055   1.366       .  A
C2055      N2056   1.354       .  A
C2055      C2188   1.492       .  S
N2056      C2057   1.351       .  A
C2057      N2058   1.355       .  A
C2057      C2160   1.487       .  S
C2059      N2060   1.376       .  A
C2059      N2064   1.371       .  A
C2059      C2120   1.503       .  S
N2060      C2061   1.371       .  A
C2061      N2062   1.355       .  A
C2061      C2080   1.492       .  S
N2062      C2063   1.354       .  A
C2063      N2064   1.366       .  A
O2065      C2081   1.277   1_556  A
O2065     Zn2071   2.029       .  S
C2066      C2244   1.486       .  S
C2066      O2082   1.283       .  A
C2066      O2079   1.269       .  A
O2067      C2080   1.284       .  A
O2067     Cd2074   2.124       .  S
O2068      C2086   1.264       .  A
O2068     Cd2077   2.003       .  S
O2069      C2083   1.278       .  A
O2069     Cd2073   2.094       .  S
O2070      C2081   1.283   1_556  A
O2070     Cd2073   2.125       .  S
Zn2071     O2082   2.091       .  S
Zn2071     O2084   2.059       .  S
Zn2071     O2076   1.921       .  S
O2072      C2083   1.264       .  A
O2072     Cd2077   2.028       .  S
Cd2073     O2075   2.101       .  S
Cd2073     O2076   1.993       .  S
Cd2074     O2078   2.132       .  S
Cd2074     O2087   2.105       .  S
Cd2074     O2076   1.993       .  S
O2075      C2085   1.284       .  A
O2076     Cd2077   1.963       .  S
Cd2077     O2079   2.025       .  S
O2078      C2085   1.288       .  A
C2080      O2084   1.283       .  A
C2083      C2143   1.493       .  S
C2085      C2094   1.491       .  S
C2086      C2157   1.496       .  S
C2086      O2087   1.277       .  A
C2088      N2093   1.374   1_545  A
C2088      C2269   1.520       .  S
N2089      C2090   1.361       .  A
C2090      N2091   1.342       .  A
C2090      C2174   1.488       .  S
C2092      N2093   1.366       .  A
C2092      C2146   1.488       .  S
C2094      N2095   1.370       .  A
C2094      N2099   1.372       .  A
N2095      C2096   1.363       .  A
C2096      N2097   1.356       .  A
C2096      C2115   1.482       .  S
N2097      C2098   1.357       .  A
C2098      N2099   1.366       .  A
O2100      C2116   1.275       .  A
O2100     Zn2106   2.012       .  S
C2101      C2286   1.491       .  S
C2101      O2117   1.281   1_545  A
O2102      C2115   1.285       .  A
O2103      C2121   1.266       .  A
O2103     Cd2112   2.017       .  S
O2104      C2118   1.283       .  A
O2104     Cd2108   2.123       .  S
O2105      C2116   1.286       .  A
O2105     Cd2108   2.152       .  S
Zn2106     O2111   1.917       .  S
O2107      C2118   1.266       .  A
O2107     Cd2112   2.023       .  S
Cd2108     O2110   2.114       .  S
Cd2108     O2111   2.005       .  S
Cd2109     O2113   2.162       .  S
Cd2109     O2122   2.140       .  S
Cd2109     O2111   1.992       .  S
O2110      C2120   1.285       .  A
O2111     Cd2112   1.936       .  S
Cd2112     O2114   2.030       .  S
O2113      C2120   1.293       .  A
C2115      O2119   1.280       .  A
C2118      C2129   1.482       .  S
C2121      C2202   1.516       .  S
C2121      O2122   1.283       .  A
C2123      N2124   1.367       .  A
C2123      N2128   1.365       .  A
C2123      C2314   1.519       .  S
N2124      C2125   1.361       .  A
C2125      N2126   1.348       .  A
C2125      C2213   1.488       .  S
N2126      C2127   1.346       .  A
C2127      N2128   1.359       .  A
C2127      C2132   1.476       .  S
C2129      C2130   1.417       .  A
C2129      C2134   1.408       .  A
C2130      C2131   1.407       .  A
C2130      C2135   1.452       .  S
C2131      C2132   1.411       .  A
C2131      C2138   1.452       .  S
C2132      C2133   1.413       .  A
C2133      C2134   1.411       .  A
C2133      C2136   1.449       .  S
C2134      C2137   1.449       .  S
C2135      N2142   1.157       .  T
C2136      N2141   1.157       .  T
C2137      N2139   1.157       .  T
C2138      N2140   1.157       .  T
C2143      C2144   1.413       .  A
C2143      C2148   1.425       .  A
C2144      C2145   1.401       .  A
C2144      C2149   1.455       .  S
C2145      C2146   1.418       .  A
C2146      C2147   1.407       .  A
C2147      C2148   1.420       .  A
C2147      C2150   1.449       .  S
C2148      C2151   1.450       .  S
C2150      N2155   1.157       .  T
C2151      N2153   1.158       .  T
C2152      N2154   1.157       .  T
C2157      C2158   1.414       .  A
C2157      C2162   1.425       .  A
C2158      C2159   1.410       .  A
C2158      C2163   1.450       .  S
C2159      C2160   1.413       .  A
C2159      C2166   1.448       .  S
C2160      C2161   1.411       .  A
C2161      C2162   1.407       .  A
C2161      C2164   1.452       .  S
C2162      C2165   1.455       .  S
C2163      N2170   1.157       .  T
C2164      N2169   1.158       .  T
C2165      N2167   1.158       .  T
C2166      N2168   1.157       .  T
C2171      C2172   1.431       .  A
C2171      C2176   1.417       .  A
C2172      C2173   1.410       .  A
C2172      C2177   1.451   1_545  S
C2173      C2174   1.406       .  A
C2173      C2180   1.453       .  S
C2174      C2175   1.416       .  A
C2175      C2176   1.415       .  A
C2175      C2178   1.451       .  S
C2176      C2179   1.450       .  S
C2177      N2184   1.156       .  T
C2178      N2183   1.157       .  T
C2179      N2181   1.158       .  T
C2180      N2182   1.157       .  T
C2185      C2186   1.424       .  A
C2185      C2190   1.411       .  A
C2186      C2187   1.412       .  A
C2186      C2191   1.452       .  S
C2187      C2188   1.406       .  A
C2187      C2194   1.448       .  S
C2188      C2189   1.412       .  A
C2189      C2190   1.410       .  A
C2189      C2192   1.447       .  S
C2190      C2193   1.450       .  S
C2191      N2198   1.157       .  T
C2192      N2197   1.157       .  T
C2193      N2195   1.157       .  T
C2194      N2196   1.157       .  T
C2199      C2200   1.417       .  A
C2199      C2204   1.405       .  A
C2200      C2201   1.416       .  A
C2201      C2202   1.419       .  A
C2202      C2203   1.432       .  A
C2203      C2204   1.414       .  A
C2203      C2206   1.451       .  S
C2204      C2207   1.452       .  S
C2205      N2212   1.157   1_556  T
C2206      N2211   1.157       .  T
C2207      N2209   1.158       .  T
C2208      N2210   1.158       .  T
C2213      C2214   1.409       .  A
C2213      C2218   1.415       .  A
C2214      C2215   1.411       .  A
C2214      C2219   1.452       .  S
C2215      C2216   1.426       .  A
C2215      C2222   1.454       .  S
C2216      C2217   1.414       .  A
C2217      C2218   1.411       .  A
C2217      C2220   1.450       .  S
C2218      C2221   1.451       .  S
C2219      N2226   1.158       .  T
C2220      N2225   1.157       .  T
C2221      N2223   1.157       .  T
C2222      N2224   1.158       .  T
C2227      C2228   1.414       .  A
C2227      C2232   1.421       .  A
C2228      C2229   1.403       .  A
C2228      C2233   1.455       .  S
C2229      C2230   1.418       .  A
C2230      C2231   1.408       .  A
C2231      C2232   1.418       .  A
C2231      C2234   1.449       .  S
C2232      C2235   1.450       .  S
C2234      N2239   1.157       .  T
C2235      N2237   1.157       .  T
C2236      N2238   1.157       .  T
C2241      C2242   1.416       .  A
C2241      C2246   1.413   1_556  A
C2242      C2243   1.415       .  A
C2242      C2247   1.447       .  S
C2243      C2244   1.410       .  A
C2243      C2250   1.449       .  S
C2244      C2245   1.412   1_556  A
C2245      C2246   1.410       .  A
C2245      C2248   1.448       .  S
C2247      N2254   1.157       .  T
C2248      N2253   1.156       .  T
C2249      N2251   1.157       .  T
C2250      N2252   1.157       .  T
C2255      C2256   1.404       .  A
C2255      C2260   1.413       .  A
C2256      C2257   1.408       .  A
C2256      C2261   1.448       .  S
C2257      C2258   1.423       .  A
C2257      C2264   1.451       .  S
C2258      C2259   1.410       .  A
C2259      C2260   1.413       .  A
C2259      C2262   1.449       .  S
C2260      C2263   1.448       .  S
C2261      N2268   1.157       .  T
C2262      N2267   1.157       .  T
C2264      N2266   1.157       .  T
C2269      C2270   1.424   1_545  A
C2269      C2274   1.425   1_556  A
C2270      C2271   1.422       .  A
C2270      C2275   1.451       .  S
C2271      C2272   1.414   1_565  A
C2271      C2278   1.451       .  S
C2273      C2276   1.454       .  S
C2275      N2282   1.158       .  T
C2276      N2281   1.158       .  T
C2277      N2279   1.157       .  T
C2278      N2280   1.157       .  T
C2283      C2284   1.422   1_545  A
C2283      C2288   1.419       .  A
C2284      C2285   1.417       .  A
C2284      C2289   1.451       .  S
C2285      C2286   1.410   1_565  A
C2285      C2292   1.451       .  S
C2286      C2287   1.412       .  A
C2287      C2288   1.413       .  A
C2287      C2290   1.452       .  S
C2288      C2291   1.451       .  S
C2289      N2296   1.158       .  T
C2291      N2293   1.158       .  T
C2292      N2294   1.157       .  T
C2297      C2298   1.417       .  A
C2297      C2302   1.411       .  A
C2298      C2299   1.416       .  A
C2298      C2303   1.449       .  S
C2299      C2300   1.408       .  A
C2299      C2306   1.449       .  S
C2300      C2301   1.415       .  A
C2301      C2302   1.401       .  A
C2301      C2304   1.455       .  S
C2302      C2305   1.453       .  S
C2303      N2310   1.157       .  T
C2304      N2309   1.157       .  T
C2305      N2307   1.157       .  T
C2306      N2308   1.157   1_565  T
C2311      C2312   1.408       .  A
C2311      C2316   1.406       .  A
C2312      C2313   1.414       .  A
C2312      C2317   1.454       .  S
C2313      C2314   1.431       .  A
C2313      C2320   1.451       .  S
C2314      C2315   1.429       .  A
C2315      C2316   1.415       .  A
C2315      C2318   1.451       .  S
C2316      C2319   1.452       .  S
C2317      N2324   1.157       .  T
C2318      N2323   1.158       .  T
C2319      N2321   1.157       .  T
C2320      N2322   1.158       .  T
C2325      C2326   1.413       .  A
C2325      C2330   1.415       .  A
C2326      C2331   1.448       .  S
C2327      C2328   1.415       .  A
C2327      C2334   1.450   1_565  S
C2329      C2330   1.409       .  A
C2329      C2332   1.453       .  S
C2330      C2333   1.451       .  S
C2332      N2337   1.157       .  T
C2333      N2335   1.157       .  T
C2334      N2336   1.157       .  T
C2339      C2340   1.408       .  A
C2339      C2344   1.412       .  A
C2340      C2341   1.397       .  A
C2340      C2345   1.455       .  S
C2341      C2342   1.417       .  A
C2341      C2348   1.455       .  S
C2342      C2343   1.410       .  A
C2343      C2344   1.410       .  A
C2343      C2346   1.450       .  S
C2344      C2347   1.450       .  S
C2345      N2352   1.157       .  T
C2348      N2350   1.157       .  T
C2353      C2354   1.416       .  A
C2353      C2358   1.430       .  A
C2354      C2355   1.411       .  A
C2354      C2359   1.450       .  S
C2355      C2356   1.412       .  A
C2355      C2362   1.448       .  S
C2356      C2357   1.408       .  A
C2357      C2358   1.408       .  A
C2357      C2360   1.453       .  S
C2358      C2361   1.452       .  S
C2359      N2366   1.158       .  T
C2360      N2365   1.158       .  T
C2361      N2363   1.157       .  T
C2362      N2364   1.157       .  T
C2367      C2368   1.426       .  A
C2367      C2372   1.409       .  A
C2368      C2369   1.416       .  A
C2368      C2373   1.450       .  S
C2369      C2370   1.408       .  A
C2369      C2376   1.448       .  S
C2370      C2371   1.419       .  A
C2371      C2372   1.413       .  A
C2371      C2374   1.451       .  S
C2372      C2375   1.450       .  S
C2373      N2380   1.157       .  T
C2374      N2379   1.157       .  T
C2375      N2377   1.157       .  T
C2376      N2378   1.157       .  T
C2381      C2382   1.414       .  A
C2381      C2386   1.414       .  A
C2382      C2383   1.416       .  A
C2382      C2387   1.448       .  S
C2383      C2384   1.416       .  A
C2383      C2390   1.451       .  S
C2384      C2385   1.417       .  A
C2385      C2386   1.410       .  A
C2385      C2388   1.453       .  S
C2386      C2389   1.451       .  S
C2387      N2394   1.157       .  T
C2388      N2393   1.157       .  T
C2389      N2391   1.157       .  T
C2390      N2392   1.157       .  T
C2395      C2396   1.413       .  A
C2395      C2400   1.411       .  A
C2396      C2397   1.414       .  A
C2396      C2401   1.448       .  S
C2397      C2398   1.412       .  A
C2397      C2404   1.450       .  S
C2398      C2399   1.413       .  A
C2399      C2400   1.406       .  A
C2399      C2402   1.449       .  S
C2400      C2403   1.453       .  S
C2401      N2408   1.157       .  T
C2402      N2407   1.156       .  T
C2404      N2406   1.157       .  T
C2409      C2410   1.404       .  A
C2409      C2414   1.409       .  A
C2410      C2411   1.405       .  A
C2410      C2415   1.453       .  S
C2411      C2412   1.427       .  A
C2411      C2418   1.454       .  S
C2412      C2413   1.413       .  A
C2413      C2414   1.410       .  A
C2413      C2416   1.450       .  S
C2414      C2417   1.449       .  S
C2415      N2422   1.157       .  T
C2416      N2421   1.157       .  T
C2417      N2419   1.157       .  T
C2418      N2420   1.158       .  T
C2423      C2424   1.418       .  A
C2423      C2428   1.408       .  A
C2424      C2425   1.412       .  A
C2424      C2429   1.452       .  S
C2425      C2426   1.416   1_545  A
C2425      C2432   1.451       .  S
C2426      C2427   1.429   1_565  A
C2427      C2428   1.413       .  A
C2427      C2430   1.452   1_545  S
C2428      C2431   1.452       .  S
C2429      N2436   1.157       .  T
C2430      N2435   1.157       .  T
C2431      N2433   1.158       .  T
C2432      N2434   1.158       .  T
C2437      C2438   1.415       .  A
C2437      C2442   1.408       .  A
C2438      C2439   1.409       .  A
C2439      C2440   1.409       .  A
C2439      C2446   1.450       .  S
C2440      C2441   1.424       .  A
C2441      C2442   1.412       .  A
C2441      C2444   1.453       .  S
C2442      C2445   1.448       .  S
C2443      N2450   1.157       .  T
C2444      N2449   1.158       .  T
C2445      N2447   1.157       .  T
C2446      N2448   1.157       .  T
C2453      C2460   1.451       .  S
C2454      C2455   1.421       .  A
C2455      C2456   1.421       .  A
C2455      C2458   1.450       .  S
C2457      N2464   1.158   1_554  T
C2458      N2463   1.157       .  T
C2459      N2461   1.157       .  T
C2460      N2462   1.158       .  T
