geometry optimzed in LAMMPS
_audit_creation_date              2020-11-30 
_audit_creation_method            'lammps2cif' 
_symmetry_space_group_name_H-M    'P1' 
_symmetry_Int_Tables_number       1 
_symmetry_cell_setting            triclinic 
loop_ 
_symmetry_equiv_pos_as_xyz 
  x,y,z 
_cell_length_a                    41.51918525 
_cell_length_b                    42.07179930729938 
_cell_length_c                    41.719468399162565 
_cell_angle_alpha                 90.31695427599621 
_cell_angle_beta                  90.37467664588193 
_cell_angle_gamma                 91.01373143620945 
loop_ 
_atom_site_label 
_atom_site_type_symbol 
_atom_site_fract_x 
_atom_site_fract_y 
_atom_site_fract_z 
_atom_site_charge 
In1        In  0.50821854  0.37706601  0.90359642     1.36900
C2          C  0.45911642  0.41774161  0.90013685     0.78000
O3          O  0.48452491  0.35789499  0.85804313    -0.60400
O4          O  0.52682296  0.33626597  0.87085978    -0.51300
C5          C  0.55719277  0.42141390  0.90038380     0.70700
O6          O  0.52781203  0.42751151  0.90254157    -0.46200
C7          C  0.50829354  0.35809958  0.96533992     0.75400
O8          O  0.45551357  0.39014946  0.91176126    -0.58000
O9          O  0.48325165  0.35817873  0.94826344    -0.48100
O10         O  0.48708347  0.42376191  0.88996152    -0.54500
C11         C  0.50706616  0.34083882  0.84843956     0.85600
O12         O  0.56250568  0.39193415  0.89915846    -0.56400
O13         O  0.53366703  0.36350723  0.94996851    -0.59700
In14       In  0.39190391  0.48997941  0.90185842     1.36900
C15         C  0.43534023  0.53938580  0.90218236     0.78000
O16         O  0.37554311  0.46651605  0.85543163    -0.60400
O17         O  0.35134835  0.50789502  0.86700011    -0.51300
C18         C  0.43400964  0.44218106  0.89947613     0.70700
O19         O  0.44000579  0.46985800  0.88944997    -0.46200
C20         C  0.36823366  0.48976729  0.96209325     0.75400
O21         O  0.43834888  0.51436963  0.91822482    -0.58000
O22         O  0.37033083  0.46494950  0.94537313    -0.48100
O23         O  0.40980067  0.53967396  0.88555088    -0.54500
C24         C  0.35669882  0.48743157  0.84543543     0.85600
O25         O  0.40565472  0.43811481  0.90969797    -0.56400
O26         O  0.37276160  0.51489257  0.94641656    -0.59700
In27       In  0.50638174  0.61187065  0.90791851     1.36900
C28         C  0.55652847  0.57185522  0.90063535     0.78000
O29         O  0.48243121  0.64287204  0.87045813    -0.60400
O30         O  0.53137355  0.65091429  0.87586140    -0.51300
C31         C  0.46008588  0.56541602  0.90334385     0.70700
O32         O  0.45804343  0.59146781  0.88859427    -0.46200
C33         C  0.49853677  0.63050093  0.96988844     0.75400
O34         O  0.55616162  0.59388631  0.92120755    -0.58000
O35         O  0.52486069  0.63369550  0.95537486    -0.48100
O36         O  0.53262343  0.57189040  0.88180192    -0.54500
C37         C  0.50688516  0.65649836  0.85873768     0.85600
O38         O  0.48550406  0.56321193  0.91979187    -0.56400
O39         O  0.47551180  0.62254735  0.95168036    -0.59700
In40       In  0.62341522  0.49853605  0.90545525     1.36900
C41         C  0.58186137  0.44756440  0.90023551     0.78000
O42         O  0.64492397  0.52471344  0.86362606    -0.60400
O43         O  0.66848764  0.48321816  0.87367877    -0.51300
C44         C  0.58134054  0.54674927  0.90061194     0.70700
O45         O  0.57921630  0.52183223  0.88347536    -0.46200
C46         C  0.63799597  0.50068778  0.96981866     0.75400
O47         O  0.57370163  0.47616991  0.90005483    -0.58000
O48         O  0.63627940  0.47521017  0.95387017    -0.48100
O49         O  0.61198627  0.44422045  0.90160924    -0.54500
C50         C  0.66574391  0.50572010  0.85398877     0.85600
O51         O  0.60535632  0.54735567  0.91944527    -0.56400
O52         O  0.63679398  0.52490990  0.95234148    -0.59700
In53       In  0.49494724  0.92857553  0.37196314     1.36900
C54         C  0.54636918  0.92187429  0.41173109     0.78000
O55         O  0.51169941  0.88820209  0.33534558    -0.60400
O56         O  0.46439967  0.88923880  0.34885410    -0.51300
C57         C  0.44898372  0.92900346  0.41779753     0.70700
O58         O  0.44237440  0.92996135  0.38823042    -0.46200
C59         C  0.49328219  0.99156140  0.35448225     0.75400
O60         O  0.51891436  0.90969538  0.41662116    -0.58000
O61         O  0.51825584  0.97520124  0.35180412    -0.48100
O62         O  0.54867764  0.93584959  0.38507717    -0.54500
C63         C  0.48513424  0.87301478  0.33490571     0.85600
O64         O  0.47876868  0.92819560  0.42381606    -0.56400
O65         O  0.46892131  0.97490790  0.36119692    -0.59700
In66       In  0.38158118  0.92572479  0.49222815     1.36900
C67         C  0.42450238  0.92836768  0.44354432     0.78000
O68         O  0.33644839  0.89753711  0.51296247    -0.60400
O69         O  0.36359015  0.87808231  0.47640631    -0.51300
C70         C  0.42394338  0.91956704  0.54097585     0.70700
O71         O  0.40265198  0.94055566  0.54051450    -0.46200
C72         C  0.35948108  0.98553545  0.48860653     0.75400
O73         O  0.43230660  0.92978200  0.47272711    -0.58000
O74         O  0.36279477  0.96804112  0.46427110    -0.48100
O75         O  0.39443664  0.92598941  0.43873699    -0.54500
C76         C  0.34203626  0.87280423  0.49689147     0.85600
O77         O  0.42252072  0.90062977  0.51750077    -0.56400
O78         O  0.36366000  0.97133661  0.51475920    -0.59700
In79       In  0.50017908  0.92307595  0.60612528     1.36900
C80         C  0.44982839  0.91893728  0.56535286     0.78000
O81         O  0.52721657  0.89143715  0.64059824    -0.60400
O82         O  0.47838712  0.88467011  0.64168608    -0.51300
C83         C  0.54782534  0.92059274  0.56094110     0.70700
O84         O  0.54958292  0.93803757  0.58561700    -0.46200
C85         C  0.49772624  0.98590357  0.62249674     0.75400
O86         O  0.47403780  0.90135234  0.56310347    -0.58000
O87         O  0.47315696  0.96801117  0.62049089    -0.48100
O88         O  0.45059387  0.93737352  0.58925563    -0.54500
C89         C  0.50500808  0.87356656  0.65053896     0.85600
O90         O  0.52219746  0.90408072  0.55956584    -0.56400
O91         O  0.52373528  0.97101666  0.62034451    -0.59700
In92       In  0.61557640  0.92311438  0.48542196     1.36900
C93         C  0.57276195  0.92031774  0.53520946     0.78000
O94         O  0.65325851  0.88701384  0.50670898    -0.60400
O95         O  0.64225093  0.88353249  0.45887770    -0.51300
C96         C  0.57200475  0.92152982  0.43671630     0.70700
O97         O  0.56670409  0.91066436  0.46431873    -0.46200
C98         C  0.63330114  0.98583036  0.48517713     0.75400
O99         O  0.56904457  0.90524426  0.50922331    -0.58000
O100        O  0.62839070  0.96975588  0.46006037    -0.48100
O101        O  0.59900713  0.93588423  0.53654716    -0.54500
C102        C  0.65570891  0.86986637  0.48188217     0.85600
O103        O  0.60004332  0.93321110  0.43342241    -0.56400
O104        O  0.63392782  0.96908036  0.51007647    -0.59700
In105      In  0.93099558  0.50700117  0.60452773     1.36900
C106        C  0.92917149  0.55629021  0.56347390     0.78000
O107        O  0.87925738  0.50987513  0.61455319    -0.60400
O108        O  0.90686703  0.51128934  0.65644498    -0.51300
C109        C  0.92433485  0.45720591  0.56359161     0.70700
O110        O  0.92242699  0.48584448  0.55567659    -0.46200
C111        C  0.99426985  0.50327164  0.61886633     0.75400
O112        O  0.94085236  0.55956975  0.59143232    -0.58000
O113        O  0.97562487  0.47926924  0.61814633    -0.48100
O114        O  0.91815120  0.52888671  0.55757948    -0.54500
C115        C  0.87894956  0.51263741  0.64449560     0.85600
O116        O  0.92952065  0.45317748  0.59323572    -0.56400
O117        O  0.98002566  0.52934095  0.61593307    -0.59700
In118      In  0.92827107  0.62238578  0.48961455     1.36900
C119        C  0.92023064  0.57916675  0.44078207     0.78000
O120        O  0.88637673  0.64214879  0.51741157    -0.60400
O121        O  0.89282738  0.66280936  0.47314267    -0.51300
C122        C  0.92871019  0.58101630  0.53846123     0.70700
O123        O  0.91480014  0.57581257  0.51188986    -0.46200
C124        C  0.99204564  0.63943822  0.48709599     0.75400
O125        O  0.92640933  0.60821193  0.43567935    -0.58000
O126        O  0.97455729  0.63594760  0.46255945    -0.48100
O127        O  0.91696525  0.57293812  0.47000333    -0.54500
C128        C  0.87419150  0.65994618  0.49676773     0.85600
O129        O  0.94255561  0.60799820  0.54066477    -0.56400
O130        O  0.97625653  0.63866904  0.51271469    -0.59700
In131      In  0.92196879  0.38827756  0.49076361     1.36900
C132        C  0.92161885  0.43164643  0.53914803     0.78000
O133        O  0.88821970  0.35407753  0.51927662    -0.60400
O134        O  0.88103116  0.35653835  0.47012604    -0.51300
C135        C  0.91923149  0.43068103  0.44154608     0.70700
O136        O  0.89428367  0.41869849  0.45431913    -0.46200
C137        C  0.98251793  0.36732647  0.48436790     0.75400
O138        O  0.93061751  0.40355644  0.54322061    -0.58000
O139        O  0.97029839  0.37412789  0.51096946    -0.48100
O140        O  0.91133859  0.43687580  0.51129724    -0.54500
C141        C  0.86917539  0.34744813  0.49643265     0.85600
O142        O  0.94508998  0.42060176  0.45339367    -0.56400
O143        O  0.96230845  0.36566154  0.46166080    -0.59700
In144      In  0.91907250  0.50437133  0.37313834     1.36900
C145        C  0.91878642  0.45555170  0.41619486     0.78000
O146        O  0.88773062  0.48022769  0.33277758    -0.60400
O147        O  0.87195287  0.52213406  0.35287403    -0.51300
C148        C  0.91837269  0.55367604  0.41584801     0.70700
O149        O  0.91397892  0.52495717  0.42314949    -0.46200
C150        C  0.97814230  0.50695508  0.34628560     0.75400
O151        O  0.94405515  0.46899790  0.40599641    -0.58000
O152        O  0.96201355  0.48143985  0.34890253    -0.48100
O153        O  0.89344643  0.46632739  0.40384160    -0.54500
C154        C  0.86380499  0.49778364  0.33669617     0.85600
O155        O  0.92216731  0.55790192  0.38615545    -0.56400
O156        O  0.96238809  0.53141418  0.35284739    -0.59700
In157      In  0.50603556  0.37855739  0.06147907     1.36900
C158        C  0.55284907  0.42311849  0.06607738     0.78000
O159        O  0.52556718  0.36469645  0.11012505    -0.60400
O160        O  0.49119373  0.33350288  0.09134929    -0.51300
C161        C  0.45490072  0.41861348  0.06010669     0.70700
O162        O  0.48281820  0.42569558  0.05088130    -0.46200
C163        C  0.50744390  0.35796593  0.00067906     0.75400
O164        O  0.52579886  0.42521721  0.07949226    -0.58000
O165        O  0.53244676  0.35983667  0.01792364    -0.48100
O166        O  0.55718752  0.39700323  0.05160811    -0.54500
C167        C  0.50570212  0.34273253  0.11643769     0.85600
O168        O  0.45233215  0.39042926  0.07016689    -0.56400
O169        O  0.48166953  0.36146607  0.01582348    -0.59700
In170      In  0.38468596  0.48953262  0.05993168     1.36900
C171        C  0.42879641  0.44242868  0.05968536     0.78000
O172        O  0.33254601  0.48307740  0.08439518    -0.60400
O173        O  0.37389254  0.49427165  0.11106459    -0.51300
C174        C  0.42265919  0.54208535  0.06857549     0.70700
O175        O  0.42908017  0.51506855  0.07949527    -0.46200
C176        C  0.36710801  0.48932517  0.99763851     0.75400
O177        O  0.43385192  0.47009882  0.04944181    -0.58000
O178        O  0.36986086  0.46413410  0.01363761    -0.48100
O179        O  0.40041456  0.43792850  0.06971780    -0.54500
C180        C  0.34407764  0.48862471  0.11200305     0.85600
O181        O  0.39575542  0.54301708  0.05422132    -0.56400
O182        O  0.36869434  0.51433859  0.01440451    -0.59700
In183      In  0.49390403  0.61396931  0.06855310     1.36900
C184        C  0.44614949  0.56913753  0.07074488     0.78000
O185        O  0.51598748  0.64410907  0.10913453    -0.60400
O186        O  0.46740792  0.65041166  0.10270111    -0.51300
C187        C  0.54444983  0.57288606  0.07088657     0.70700
O188        O  0.54681621  0.60026728  0.05874278    -0.46200
C189        C  0.49575247  0.63053473  0.00545281     0.75400
O190        O  0.47260752  0.56701268  0.08559630    -0.58000
O191        O  0.51919883  0.63514865  0.02431947    -0.48100
O192        O  0.44292278  0.59524126  0.05633651    -0.54500
C193        C  0.49116404  0.65606581  0.12101480     0.85600
O194        O  0.51704709  0.56713438  0.08256785    -0.56400
O195        O  0.47057431  0.62141675  0.01946869    -0.59700
In196      In  0.61544285  0.50166325  0.06824516     1.36900
C197        C  0.57039951  0.54865154  0.07050278     0.78000
O198        O  0.63314448  0.47825085  0.11504262    -0.60400
O199        O  0.65228821  0.52301745  0.10693312    -0.51300
C200        C  0.57604508  0.45016822  0.06644429     0.70700
O201        O  0.56794440  0.47712773  0.07653174    -0.46200
C202        C  0.63619007  0.50209136  0.00570674     0.75400
O203        O  0.59995146  0.55444305  0.06564341    -0.58000
O204        O  0.62778691  0.52655511  0.02070856    -0.48100
O205        O  0.56431924  0.51955620  0.07460857    -0.54500
C206        C  0.64862222  0.50117398  0.12740075     0.85600
O207        O  0.60471444  0.44912087  0.05645398    -0.56400
O208        O  0.63850883  0.47826490  0.02367091    -0.59700
In209      In  0.49526088  0.08205125  0.59974471     1.36900
C210        C  0.54549346  0.08405224  0.55936749     0.78000
O211        O  0.48051455  0.11327731  0.64416828    -0.60400
O212        O  0.51275573  0.13191491  0.61106641    -0.51300
C213        C  0.44453414  0.08390819  0.55773099     0.70700
O214        O  0.46870438  0.06656752  0.55447730    -0.46200
C215        C  0.49609887  0.02132303  0.62166657     0.75400
O216        O  0.51702122  0.09060995  0.55156159    -0.58000
O217        O  0.52073694  0.03919223  0.62133848    -0.48100
O218        O  0.54917425  0.07777170  0.58873579    -0.54500
C219        C  0.49457638  0.13827048  0.63422011     0.85600
O220        O  0.44550649  0.10035028  0.58311131    -0.56400
O221        O  0.47039138  0.03589863  0.61618723    -0.59700
In222      In  0.61478683  0.08351738  0.48726562     1.36900
C223        C  0.57049913  0.09030339  0.43884439     0.78000
O224        O  0.63644346  0.12636179  0.51388897    -0.60400
O225        O  0.65449219  0.11992964  0.46857857    -0.51300
C226        C  0.57122465  0.08335262  0.53508830     0.70700
O227        O  0.56481295  0.08878481  0.50615951    -0.46200
C228        C  0.63280638  0.02125992  0.48569711     0.75400
O229        O  0.59932547  0.08271693  0.43345584    -0.58000
O230        O  0.63259940  0.03759990  0.51102157    -0.48100
O231        O  0.56534564  0.09601015  0.46793227    -0.54500
C232        C  0.65270943  0.13897376  0.49202648     0.85600
O233        O  0.60053563  0.07723970  0.54036009    -0.56400
O234        O  0.62792166  0.03751336  0.46103927    -0.59700
In235      In  0.37344894  0.08258639  0.48502672     1.36900
C236        C  0.41835631  0.08439105  0.53310119     0.78000
O237        O  0.34734085  0.12122017  0.45841855    -0.60400
O238        O  0.32789699  0.11073614  0.50284529    -0.51300
C239        C  0.41654379  0.09266198  0.43791292     0.70700
O240        O  0.39152037  0.07544327  0.43423523    -0.46200
C241        C  0.35673360  0.02053753  0.48671064     0.75400
O242        O  0.41880072  0.06599325  0.50930657    -0.58000
O243        O  0.36011048  0.03551344  0.46088365    -0.48100
O244        O  0.39449385  0.10276312  0.53297439    -0.54500
C245        C  0.32763360  0.12980759  0.47942530     0.85600
O246        O  0.41835029  0.10659320  0.46478556    -0.56400
O247        O  0.35618382  0.03817361  0.51118624    -0.59700
In248      In  0.49296396  0.09031713  0.37299836     1.36900
C249        C  0.44276400  0.09419563  0.41394580     0.78000
O250        O  0.51595022  0.13395658  0.35001974    -0.60400
O251        O  0.46892165  0.12578660  0.33577644    -0.51300
C252        C  0.54391399  0.09105224  0.41463490     0.70700
O253        O  0.54689895  0.08444611  0.38523330    -0.46200
C254        C  0.49273475  0.02720283  0.35509162     0.75400
O255        O  0.44007774  0.08280953  0.38598203    -0.58000
O256        O  0.46830245  0.04203600  0.36374878    -0.48100
O257        O  0.47061997  0.10494952  0.42049374    -0.54500
C258        C  0.49221413  0.14541933  0.33555642     0.85600
O259        O  0.51538823  0.09737502  0.42240195    -0.56400
O260        O  0.51690714  0.04531664  0.35136431    -0.59700
In261      In  0.07630312  0.50616708  0.35941657     1.36900
C262        C  0.08258478  0.55218126  0.40548244     0.78000
O263        O  0.11451001  0.48136776  0.33075294    -0.60400
O264        O  0.10584635  0.52755974  0.31602819    -0.51300
C265        C  0.08201535  0.45663066  0.40027404     0.70700
O266        O  0.06286964  0.45638413  0.37670900    -0.46200
C267        C  0.01367241  0.50762218  0.34255599     0.75400
O268        O  0.06075505  0.53109771  0.40481726    -0.58000
O269        O  0.03060633  0.53257921  0.34621955    -0.48100
O270        O  0.10144300  0.55066776  0.38191991    -0.54500
C271        C  0.12449356  0.50416905  0.31375432     0.85600
O272        O  0.09995691  0.48115648  0.40175166    -0.56400
O273        O  0.02985861  0.48264118  0.34149071    -0.59700
In274      In  0.07997390  0.38769518  0.47292966     1.36900
C275        C  0.08208034  0.43135897  0.42501661     0.78000
O276        O  0.12461342  0.36394534  0.49111339    -0.60400
O277        O  0.10966498  0.34859504  0.44607625    -0.51300
C278        C  0.08523239  0.42775589  0.52397552     0.70700
O279        O  0.07628991  0.39905849  0.52687675    -0.46200
C280        C  0.01788819  0.36798020  0.47974322     0.75400
O281        O  0.06274032  0.40788266  0.42495433    -0.58000
O282        O  0.03091284  0.37128163  0.45277959    -0.48100
O283        O  0.10048875  0.43225935  0.44909446    -0.54500
C284        C  0.13204001  0.34835867  0.46660568     0.85600
O285        O  0.09104424  0.43568262  0.49546646    -0.56400
O286        O  0.03738647  0.37077390  0.50280878    -0.59700
In287      In  0.09118755  0.49755815  0.59628521     1.36900
C288        C  0.08841258  0.45092809  0.55083334     0.78000
O289        O  0.13737290  0.52057291  0.61754037    -0.60400
O290        O  0.12828598  0.47370957  0.63044051    -0.51300
C291        C  0.09095647  0.54614173  0.55507529     0.70700
O292        O  0.08214527  0.54948088  0.58385372    -0.46200
C293        C  0.02986151  0.50091162  0.61779113     0.75400
O294        O  0.10044013  0.47820481  0.54661210    -0.58000
O295        O  0.04403530  0.47500083  0.61396976    -0.48100
O296        O  0.07882982  0.44631674  0.57914803    -0.54500
C297        C  0.14877822  0.49619652  0.63018509     0.85600
O298        O  0.09989604  0.51855595  0.54794497    -0.56400
O299        O  0.04828699  0.52482468  0.61564843    -0.59700
In300      In  0.08818461  0.61495712  0.48436333     1.36900
C301        C  0.09054932  0.57145236  0.53089859     0.78000
O302        O  0.13649625  0.62522854  0.50660194    -0.60400
O303        O  0.12239864  0.65927930  0.47353139    -0.51300
C304        C  0.08536174  0.57542769  0.43244284     0.70700
O305        O  0.06698867  0.57358705  0.45621884    -0.46200
C306        C  0.02791279  0.63840081  0.48618000     0.75400
O307        O  0.07960826  0.59887542  0.53574323    -0.58000
O308        O  0.04354545  0.63578804  0.46051643    -0.48100
O309        O  0.10078617  0.56682497  0.50290905    -0.54500
C310        C  0.14477186  0.65003711  0.49191768     0.85600
O311        O  0.10580622  0.59801754  0.43455007    -0.56400
O312        O  0.04489255  0.63464603  0.51096627    -0.59700
C313        C  0.65124072  0.50608908  0.16498282    -0.02000
C314        C  0.48845641  0.66339658  0.15812685    -0.02000
C315        C  0.18128807  0.65991746  0.49062023    -0.02000
C316        C  0.18557765  0.49159522  0.63523437    -0.02000
C317        C  0.65818415  0.17618615  0.48960529    -0.02000
C318        C  0.48635874  0.17382111  0.64339103    -0.02000
C319        C  0.32794564  0.48868091  0.14574552    -0.02000
C320        C  0.49603013  0.33448854  0.15195750    -0.02000
C321        C  0.48977174  0.18219823  0.32883444    -0.02000
C322        C  0.31646712  0.16529938  0.48118656    -0.02000
C323        C  0.16094815  0.50664063  0.30386348    -0.02000
C324        C  0.16766212  0.33959622  0.45956590    -0.02000
C325        C  0.51292219  0.33439161  0.81167848    -0.02000
C326        C  0.35145893  0.49268368  0.80872667    -0.02000
C327        C  0.33133697  0.83777432  0.50469567    -0.02000
C328        C  0.48082321  0.83581340  0.32864811    -0.02000
C329        C  0.82702556  0.48794231  0.33168811    -0.02000
C330        C  0.83191194  0.34241216  0.50148987    -0.02000
C331        C  0.84605916  0.51944571  0.66072644    -0.02000
C332        C  0.67687765  0.50600819  0.81789977    -0.02000
C333        C  0.51023328  0.83742958  0.65969750    -0.02000
C334        C  0.50856972  0.66637243  0.82231828    -0.02000
C335        C  0.83692436  0.66485418  0.49647519    -0.02000
C336        C  0.66066658  0.83258020  0.48252786    -0.02000
C337        C  0.72049218  0.76355712  0.49236422    -0.01600
C338        C  0.75142307  0.77571151  0.48490059     0.07000
C339        C  0.75380493  0.80885052  0.47858680    -0.07500
C340        C  0.72599736  0.82878780  0.47854117     0.04500
C341        C  0.69457033  0.81551121  0.48302172    -0.14800
C342        C  0.69327009  0.78241284  0.48951878    -0.08100
C343        C  0.77919254  0.75240166  0.48111535     0.05400
C344        C  0.77288374  0.72483609  0.46300572    -0.09200
C345        C  0.79012080  0.69676895  0.46763545     0.00400
C346        C  0.82036853  0.69677990  0.48480918     0.00300
C347        C  0.82956508  0.72675299  0.49834634    -0.12800
C348        C  0.80847017  0.75326132  0.49876816     0.00700
C349        C  0.77229910  0.66840349  0.45815378     0.40100
C350        C  0.81579338  0.77941884  0.52021674     0.36700
C351        C  0.71579149  0.73148245  0.50407406     0.36400
C352        C  0.73052484  0.86237626  0.47354994     0.37200
N353        N  0.75719297  0.64612937  0.45074812    -0.43600
N354        N  0.82142845  0.80001925  0.53799489    -0.44100
N355        N  0.73437530  0.88938490  0.46964428    -0.41400
N356        N  0.71217531  0.70585795  0.51351831    -0.42900
H357        H  0.67034361  0.77101275  0.49449377     0.13300
H358        H  0.77725431  0.81917552  0.47331695     0.09800
H359        H  0.75084727  0.72366727  0.44884384     0.10800
H360        H  0.85208496  0.72896045  0.51110166     0.16700
C361        C  0.57118804  0.79101244  0.60983304    -0.01600
C362        C  0.59533659  0.81421804  0.60529567     0.07000
C363        C  0.59746457  0.84026830  0.62610534    -0.07500
C364        C  0.57265620  0.84616996  0.64764786     0.04500
C365        C  0.54371877  0.82708080  0.64616695    -0.14800
C366        C  0.54627872  0.79700854  0.63106176    -0.08100
C367        C  0.61269267  0.81588121  0.57479336     0.05400
C368        C  0.59455718  0.82315126  0.54771828    -0.09200
C369        C  0.60905113  0.82788653  0.51820182     0.00400
C370        C  0.64293982  0.82416134  0.51451597     0.00300
C371        C  0.66104093  0.81831976  0.54293707    -0.12800
C372        C  0.64615918  0.81360136  0.57256553     0.00700
C373        C  0.58803782  0.83804809  0.49289881     0.40100
C374        C  0.66554734  0.80673612  0.60043789     0.36700
C375        C  0.56993276  0.76234940  0.59065224     0.36400
C376        C  0.57813633  0.87151479  0.67083493     0.37200
N377        N  0.57050435  0.84571407  0.47292614    -0.43600
N378        N  0.68087527  0.80111115  0.62289804    -0.44100
N379        N  0.58258119  0.89180603  0.68927640    -0.41400
N380        N  0.56895734  0.73948049  0.57512018    -0.42900
H381        H  0.52734820  0.77914353  0.63337679     0.13300
H382        H  0.61739849  0.85714263  0.62403068     0.09800
H383        H  0.56874634  0.82629241  0.55000872     0.10800
H384        H  0.68709545  0.81829430  0.54261479     0.16700
C385        C  0.53860240  0.80263287  0.74198307    -0.01600
C386        C  0.50956789  0.79205818  0.75553001     0.07000
C387        C  0.48112882  0.80627449  0.74393195    -0.07500
C388        C  0.48146181  0.82632982  0.71625044     0.04500
C389        C  0.50975419  0.82900355  0.69710839    -0.14800
C390        C  0.53851934  0.81936014  0.71301218    -0.08100
C391        C  0.50912574  0.76123654  0.77460987     0.05400
C392        C  0.50501156  0.75992037  0.80830781    -0.09200
C393        C  0.50686577  0.73058291  0.82550503     0.00400
C394        C  0.51104619  0.70137301  0.80884765     0.00300
C395        C  0.51652812  0.70375347  0.77542500    -0.12800
C396        C  0.51661699  0.73255383  0.75886017     0.00700
C397        C  0.50581850  0.73140049  0.85998273     0.40100
C398        C  0.52590606  0.73187851  0.72550403     0.36700
C399        C  0.56915722  0.79402353  0.75594713     0.36400
C400        C  0.45163884  0.84029547  0.70601532     0.37200
N401        N  0.50529952  0.73219319  0.88770646    -0.43600
N402        N  0.53396094  0.73131436  0.69899678    -0.44100
N403        N  0.42754526  0.85111315  0.69776600    -0.41400
N404        N  0.59370690  0.78755475  0.76721473    -0.42900
H405        H  0.56185120  0.82261045  0.70255592     0.13300
H406        H  0.45834558  0.80001376  0.75496069     0.09800
H407        H  0.50132891  0.78188331  0.82135179     0.10800
H408        H  0.52151981  0.68250833  0.76173025     0.16700
C409        C  0.64732334  0.59041298  0.82026419    -0.01600
C410        C  0.62325768  0.58964954  0.79622596     0.07000
C411        C  0.62562255  0.56694996  0.77154901    -0.07500
C412        C  0.64708454  0.54160161  0.77427231     0.04500
C413        C  0.66512608  0.53809827  0.80313814    -0.14800
C414        C  0.66956845  0.56597340  0.82178174    -0.08100
C415        C  0.59389577  0.60948910  0.79876378     0.05400
C416        C  0.59707852  0.64244080  0.80311993    -0.09200
C417        C  0.57058471  0.66098471  0.81129944     0.00400
C418        C  0.53879551  0.64744158  0.81137016     0.00300
C419        C  0.53643107  0.61391715  0.80862413    -0.12800
C420        C  0.56308917  0.59522957  0.80191509     0.00700
C421        C  0.57789625  0.69234020  0.82394284     0.40100
C422        C  0.55831167  0.56114351  0.80081496     0.36700
C423        C  0.64708716  0.61298641  0.84647616     0.36400
C424        C  0.64906230  0.51971107  0.74763023     0.37200
N425        N  0.58427838  0.71709103  0.83471060    -0.43600
N426        N  0.55419027  0.53388128  0.79998539    -0.44100
N427        N  0.65023833  0.50257410  0.72588220    -0.41400
N428        N  0.64694671  0.63075821  0.86774344    -0.42900
H429        H  0.68628139  0.56605212  0.84175701     0.13300
H430        H  0.60919059  0.56781381  0.75126985     0.09800
H431        H  0.62089282  0.65343418  0.80243766     0.10800
H432        H  0.51371491  0.60182560  0.81333701     0.16700
C433        C  0.85332354  0.60213582  0.62049366    -0.01600
C434        C  0.82100363  0.61216175  0.61770573     0.07000
C435        C  0.79754366  0.59535746  0.63548648    -0.07500
C436        C  0.80493292  0.56661197  0.65125170     0.04500
C437        C  0.83629567  0.55342805  0.64846458    -0.14800
C438        C  0.86040596  0.57421632  0.63630380    -0.08100
C439        C  0.81217888  0.63751088  0.59389583     0.05400
C440        C  0.83325115  0.66352915  0.59017830    -0.09200
C441        C  0.84153083  0.67389524  0.55939276     0.00400
C442        C  0.82471921  0.66114866  0.53194660     0.00300
C443        C  0.79497111  0.64582120  0.53863208    -0.12800
C444        C  0.78968592  0.63187427  0.56879229     0.00700
C445        C  0.86930868  0.69495150  0.55761690     0.40100
C446        C  0.76218051  0.61085478  0.57238560     0.36700
C447        C  0.88058220  0.61889276  0.60672317     0.36400
C448        C  0.77925637  0.55020284  0.66787744     0.37200
N449        N  0.89192964  0.71142108  0.55702258    -0.43600
N450        N  0.73973865  0.59438185  0.57497944    -0.44100
N451        N  0.75840693  0.53751946  0.68123711    -0.41400
N452        N  0.90283132  0.63222165  0.59650005    -0.42900
H453        H  0.88570192  0.56884536  0.63858500     0.13300
H454        H  0.77308344  0.60386976  0.63601271     0.09800
H455        H  0.84757947  0.67163892  0.61058165     0.10800
H456        H  0.77801829  0.64073052  0.51938287     0.16700
C457        C  0.82385897  0.48806745  0.74495931    -0.01600
C458        C  0.80529492  0.51377743  0.75561001     0.07000
C459        C  0.81359328  0.54384973  0.74361635    -0.07500
C460        C  0.83480957  0.54700954  0.71738044     0.04500
C461        C  0.84419536  0.51964371  0.69929186    -0.14800
C462        C  0.84396408  0.49153206  0.71795646    -0.08100
C463        C  0.77466914  0.50892517  0.77456762     0.05400
C464        C  0.77027033  0.52183266  0.80557958    -0.09200
C465        C  0.74014326  0.51914002  0.82173416     0.00400
C466        C  0.71299828  0.50441591  0.80645621     0.00300
C467        C  0.71832326  0.49201874  0.77517643    -0.12800
C468        C  0.74827853  0.49299653  0.76009090     0.00700
C469        C  0.73791977  0.53178403  0.85375278     0.40100
C470        C  0.75086024  0.47820581  0.72883271     0.36700
C471        C  0.82241955  0.45795756  0.76133701     0.36400
C472        C  0.84884421  0.57809468  0.71176349     0.37200
N473        N  0.73628748  0.54194599  0.87951229    -0.43600
N474        N  0.75308135  0.46611650  0.70397129    -0.44100
N475        N  0.86045507  0.60297857  0.70788494    -0.41400
N476        N  0.82150482  0.43390623  0.77465559    -0.42900
H477        H  0.85980427  0.47217395  0.71271757     0.13300
H478        H  0.80291877  0.56480362  0.75406490     0.09800
H479        H  0.79036898  0.53409398  0.81720545     0.10800
H480        H  0.69871285  0.48106626  0.76178254     0.16700
C481        C  0.82782662  0.42171659  0.54827712    -0.01600
C482        C  0.81402106  0.41314722  0.57787075     0.07000
C483        C  0.80686012  0.38107335  0.58359692    -0.07500
C484        C  0.81404622  0.35744580  0.56107656     0.04500
C485        C  0.82489937  0.36600370  0.52975003    -0.14800
C486        C  0.83288770  0.39854120  0.52489479    -0.08100
C487        C  0.81180475  0.43668842  0.60457202     0.05400
C488        C  0.79668597  0.46549185  0.59919240    -0.09200
C489        C  0.80472731  0.49285156  0.61724196     0.00400
C490        C  0.82545191  0.49102299  0.64512847     0.00300
C491        C  0.83654675  0.45990272  0.65187769    -0.12800
C492        C  0.83040376  0.43349077  0.63239108     0.00700
C493        C  0.79652447  0.52142453  0.60057069     0.40100
C494        C  0.84792460  0.40477295  0.63892216     0.36700
C495        C  0.83839557  0.45392612  0.54161394     0.36400
C496        C  0.81340714  0.32531923  0.57305852     0.37200
N497        N  0.78952253  0.54290428  0.58497943    -0.43600
N498        N  0.86201276  0.38186819  0.64416706    -0.44100
N499        N  0.81285062  0.29979841  0.58329346    -0.41400
N500        N  0.84686795  0.47970849  0.53630762    -0.42900
H501        H  0.84317363  0.40596166  0.50224794     0.13300
H502        H  0.79765414  0.37422192  0.60688903     0.09800
H503        H  0.78217539  0.46765131  0.57754708     0.10800
H504        H  0.85663707  0.45678270  0.66792039     0.16700
C505        C  0.83816032  0.40327834  0.36656031    -0.01600
C506        C  0.80719306  0.39683729  0.37895320     0.07000
C507        C  0.78158036  0.41539162  0.36846196    -0.07500
C508        C  0.78715570  0.44303881  0.35069440     0.04500
C509        C  0.81928436  0.45280823  0.34268763    -0.14800
C510        C  0.84336898  0.42989584  0.34729324    -0.08100
C511        C  0.80269381  0.37667746  0.40782361     0.05400
C512        C  0.78893385  0.39059451  0.43496968    -0.09200
C513        C  0.79323661  0.37749804  0.46530953     0.00400
C514        C  0.81558506  0.35247367  0.46934306     0.00300
C515        C  0.82329933  0.33494473  0.44141419    -0.12800
C516        C  0.81589073  0.34628610  0.41084843     0.00700
C517        C  0.77255297  0.38898850  0.49038236     0.40100
C518        C  0.82208808  0.32664628  0.38315904     0.36700
C519        C  0.86599576  0.38509479  0.37557501     0.36400
C520        C  0.75928311  0.46134916  0.34220154     0.37200
N521        N  0.75550654  0.39807057  0.51013938    -0.43600
N522        N  0.82665723  0.31063781  0.36106213    -0.44100
N523        N  0.73654949  0.47538850  0.33537431    -0.41400
N524        N  0.88838677  0.37064662  0.38267831    -0.42900
H525        H  0.86681207  0.43217555  0.33693848     0.13300
H526        H  0.75735515  0.40971784  0.37648554     0.09800
H527        H  0.77564965  0.41244877  0.43275342     0.10800
H528        H  0.83666720  0.31313605  0.44351298     0.16700
C529        C  0.82203208  0.52532178  0.41468486    -0.01600
C530        C  0.80911037  0.55550759  0.40886670     0.07000
C531        C  0.79298859  0.56022041  0.37950919    -0.07500
C532        C  0.79282238  0.53705223  0.35487506     0.04500
C533        C  0.81078175  0.50881172  0.35871275    -0.14800
C534        C  0.82113874  0.50221950  0.39058731    -0.08100
C535        C  0.81439023  0.58298472  0.43155798     0.05400
C536        C  0.82752580  0.61144945  0.41963019    -0.09200
C537        C  0.83380408  0.63777168  0.43968956     0.00400
C538        C  0.82826642  0.63600720  0.47351820     0.00300
C539        C  0.81827572  0.60588480  0.48528220    -0.12800
C540        C  0.80840254  0.58105865  0.46473370     0.00700
C541        C  0.84547576  0.66649384  0.42445804     0.40100
C542        C  0.79028862  0.55483250  0.47829177     0.36700
C543        C  0.83979194  0.51806220  0.44357253     0.36400
C544        C  0.77139209  0.54228733  0.32826065     0.37200
N545        N  0.85470672  0.68948448  0.41218335    -0.43600
N546        N  0.77543926  0.53408651  0.48923320    -0.44100
N547        N  0.75326863  0.54730479  0.30778760    -0.41400
N548        N  0.85394657  0.51175950  0.46660225    -0.42900
H549        H  0.83327286  0.48020229  0.39556302     0.13300
H550        H  0.78077290  0.58246604  0.37563499     0.09800
H551        H  0.83274308  0.61326291  0.39425220     0.10800
H552        H  0.81796183  0.60095562  0.51059663     0.16700
C553        C  0.56225339  0.79632260  0.35344425    -0.01600
C554        C  0.56597005  0.80720047  0.38512554     0.07000
C555        C  0.54010063  0.82216232  0.39968170    -0.07500
C556        C  0.51219343  0.82937632  0.38261876     0.04500
C557        C  0.50948541  0.82227585  0.34906368    -0.14800
C558        C  0.53398136  0.80300665  0.33607706    -0.08100
C559        C  0.59644633  0.80432078  0.40393358     0.05400
C560        C  0.62227596  0.82524958  0.39786899    -0.09200
C561        C  0.64674287  0.83027172  0.42090440     0.00400
C562        C  0.64305975  0.81757902  0.45231924     0.00300
C563        C  0.62131663  0.79134964  0.45499810    -0.12800
C564        C  0.59812382  0.78482644  0.43111022     0.00700
C565        C  0.67406534  0.85001295  0.41210187     0.40100
C566        C  0.57555025  0.75876888  0.43532827     0.36700
C567        C  0.58681482  0.77749272  0.33870143     0.36400
C568        C  0.48649486  0.84325014  0.40100819     0.37200
N569        N  0.69565507  0.86595818  0.40448502    -0.43600
N570        N  0.55781923  0.73747854  0.43828899    -0.44100
N571        N  0.46593223  0.85372484  0.41616255    -0.41400
N572        N  0.60653286  0.76220747  0.32710038    -0.42900
H573        H  0.53138487  0.79236991  0.31266389     0.13300
H574        H  0.54172399  0.82867998  0.42464705     0.09800
H575        H  0.62256992  0.83875276  0.37579913     0.10800
H576        H  0.61999737  0.77779314  0.47691471     0.16700
C577        C  0.39167872  0.79919230  0.44560569    -0.01600
C578        C  0.37701609  0.80316298  0.41551672     0.07000
C579        C  0.34464474  0.81120150  0.41457218    -0.07500
C580        C  0.32960113  0.82352844  0.44181820     0.04500
C581        C  0.34336175  0.81964864  0.47337833    -0.14800
C582        C  0.37515759  0.80716747  0.47344943    -0.08100
C583        C  0.39696939  0.80729687  0.38608644     0.05400
C584        C  0.41942646  0.78425689  0.37794705    -0.09200
C585        C  0.44543177  0.79168970  0.35790693     0.00400
C586        C  0.44895076  0.82291454  0.34482951     0.00300
C587        C  0.42121892  0.84183962  0.34602656    -0.12800
C588        C  0.39703333  0.83594335  0.36842933     0.00700
C589        C  0.46825296  0.76682015  0.35264219     0.40100
C590        C  0.37497945  0.86137895  0.37483745     0.36700
C591        C  0.42502171  0.79027558  0.44888700     0.36400
C592        C  0.30752759  0.84814571  0.43324711     0.37200
N593        N  0.48638682  0.74649187  0.34954521    -0.43600
N594        N  0.35768211  0.88205355  0.37994010    -0.44100
N595        N  0.29126323  0.86820469  0.42384187    -0.41400
N596        N  0.45162123  0.78295331  0.45173328    -0.42900
H597        H  0.38999761  0.80754590  0.49470545     0.13300
H598        H  0.33342985  0.81421272  0.39120509     0.09800
H599        H  0.41811979  0.76117240  0.38937460     0.10800
H600        H  0.41922003  0.86259282  0.33098837     0.16700
C601        C  0.38734544  0.84110821  0.58001836    -0.01600
C602        C  0.39919199  0.81011713  0.58082265     0.07000
C603        C  0.38299218  0.78626947  0.56318505    -0.07500
C604        C  0.35792420  0.79412952  0.54178263     0.04500
C605        C  0.35166600  0.82686906  0.53481133    -0.14800
C606        C  0.36444638  0.84936133  0.55710723    -0.08100
C607        C  0.43067339  0.80477592  0.59693563     0.05400
C608        C  0.43226851  0.79172174  0.62763929    -0.09200
C609        C  0.45979892  0.79672631  0.64716094     0.00400
C610        C  0.48391478  0.81954937  0.63797334     0.00300
C611        C  0.48428183  0.82699000  0.60472539    -0.12800
C612        C  0.45854530  0.81915473  0.58433954     0.00700
C613        C  0.46368620  0.77466545  0.67303557     0.40100
C614        C  0.46036607  0.82767050  0.55087868     0.36700
C615        C  0.39881355  0.86498721  0.60257110     0.36400
C616        C  0.34109877  0.76838779  0.52531986     0.37200
N617        N  0.46528318  0.75573041  0.69294415    -0.43600
N618        N  0.46189585  0.83403112  0.52397099    -0.44100
N619        N  0.32746194  0.74787174  0.51217253    -0.41400
N620        N  0.40775274  0.88375125  0.62110800    -0.42900
H621        H  0.35673271  0.87360530  0.55749990     0.13300
H622        H  0.39062628  0.76184980  0.56520207     0.09800
H623        H  0.41199885  0.77775360  0.63640000     0.10800
H624        H  0.50420590  0.84076822  0.59495043     0.16700
C625        C  0.37049189  0.58304193  0.80027709    -0.01600
C626        C  0.40419605  0.58397024  0.79746655     0.07000
C627        C  0.42119525  0.55584447  0.80194298    -0.07500
C628        C  0.40532173  0.52672090  0.80657178     0.04500
C629        C  0.37106516  0.52457972  0.80497162    -0.14800
C630        C  0.35450981  0.55390007  0.80525407    -0.08100
C631        C  0.42335972  0.61384688  0.79346236     0.05400
C632        C  0.42055723  0.63864132  0.81572383    -0.09200
C633        C  0.44590917  0.66059423  0.82003225     0.00400
C634        C  0.47646128  0.65397250  0.80641583     0.00300
C635        C  0.47583799  0.63478236  0.77849052    -0.12800
C636        C  0.44907416  0.61517834  0.77167079     0.00700
C637        C  0.44064732  0.68748045  0.84089095     0.40100
C638        C  0.44863561  0.59578834  0.74303321     0.36700
C639        C  0.35165727  0.61140480  0.79736009     0.36400
C640        C  0.42529921  0.50029569  0.81485395     0.37200
N641        N  0.43537856  0.70900961  0.85730213    -0.43600
N642        N  0.44762091  0.58068010  0.71977746    -0.44100
N643        N  0.44191807  0.47959623  0.82163189    -0.41400
N644        N  0.33661620  0.63418945  0.79509063    -0.42900
H645        H  0.32863699  0.55415406  0.80833310     0.13300
H646        H  0.44733973  0.55681912  0.80273481     0.09800
H647        H  0.39979382  0.63974664  0.83125788     0.10800
H648        H  0.49676530  0.63314351  0.76329326     0.17900
C649        C  0.40563993  0.44125266  0.75376250    -0.01600
C650        C  0.40327675  0.41151269  0.76902171     0.07000
C651        C  0.37737969  0.40617510  0.78969460    -0.07500
C652        C  0.35773599  0.43127878  0.79941088     0.04500
C653        C  0.36561951  0.46327678  0.79049066    -0.14800
C654        C  0.38730727  0.46681386  0.76470444    -0.08100
C655        C  0.43226545  0.39116535  0.77258293     0.05400
C656        C  0.45915742  0.40559082  0.78691986    -0.09200
C657        C  0.48466640  0.38803803  0.79862949     0.00400
C658        C  0.48530628  0.35407728  0.79488418     0.00300
C659        C  0.45937916  0.34009850  0.77699404    -0.12800
C660        C  0.43267113  0.35810474  0.76694996     0.00700
C661        C  0.50887768  0.40619072  0.81622744     0.40100
C662        C  0.40609305  0.34227279  0.75068762     0.36700
C663        C  0.42849064  0.44651020  0.72834986     0.36400
C664        C  0.33173839  0.42333093  0.82091976     0.37200
N665        N  0.52794459  0.42095628  0.83044553    -0.43600
N666        N  0.38482258  0.32956417  0.73756295    -0.44100
N667        N  0.31118411  0.41607415  0.83815661    -0.41400
N668        N  0.44649898  0.45058960  0.70766401    -0.42900
H669        H  0.39225024  0.48991362  0.75464092     0.13300
H670        H  0.37427834  0.38300322  0.80064352     0.09800
H671        H  0.45938108  0.43100497  0.79093849     0.10800
H672        H  0.45904661  0.31518709  0.77097616     0.16700
C673        C  0.59782442  0.37213535  0.81989556    -0.01600
C674        C  0.59925230  0.39147358  0.79245905     0.07000
C675        C  0.57753325  0.38527333  0.76725104    -0.07500
C676        C  0.55134798  0.36426900  0.77136756     0.04500
C677        C  0.54562304  0.35044424  0.80205409    -0.14800
C678        C  0.57175100  0.35148279  0.82394240    -0.08100
C679        C  0.62013065  0.42042546  0.79194208     0.05400
C680        C  0.65287151  0.41798242  0.79936276    -0.09200
C681        C  0.67122611  0.44472857  0.80833720     0.00400
C682        C  0.65801472  0.47580606  0.80615647     0.00300
C683        C  0.62476404  0.47755598  0.79934569    -0.12800
C684        C  0.60638838  0.45079225  0.79076710     0.00700
C685        C  0.70223097  0.43878315  0.82290611     0.40100
C686        C  0.57316146  0.45542300  0.78177682     0.36700
C687        C  0.62198470  0.37337892  0.84500095     0.36400
C688        C  0.53104602  0.35763383  0.74379808     0.37200
N689        N  0.72690443  0.43385115  0.83477797    -0.43600
N690        N  0.54679861  0.45955896  0.77388433    -0.44100
N691        N  0.51487218  0.35243160  0.72161786    -0.41400
N692        N  0.64142084  0.37377860  0.86502022    -0.42900
H693        H  0.57286766  0.33538517  0.84387324     0.13300
H694        H  0.58014028  0.39808145  0.74490177     0.09800
H695        H  0.66350850  0.39465607  0.80074390     0.10800
H696        H  0.61249205  0.49987781  0.80169136     0.16700
C697        C  0.21255267  0.44320567  0.34527904    -0.01600
C698        C  0.19066542  0.41731076  0.34412793     0.07000
C699        C  0.16679976  0.41696390  0.32033293    -0.07500
C700        C  0.16077211  0.44428902  0.30247120     0.04500
C701        C  0.17624228  0.47368999  0.31136031    -0.14800
C702        C  0.20491856  0.47139093  0.32959326    -0.08100
C703        C  0.18651430  0.39639440  0.37248584     0.05400
C704        C  0.18233585  0.41139544  0.40216306    -0.09200
C705        C  0.17568486  0.39417098  0.42986116     0.00400
C706        C  0.17447147  0.36026282  0.42907293     0.00300
C707        C  0.17492199  0.34582395  0.39817197    -0.12800
C708        C  0.18196147  0.36324928  0.37043250     0.00700
C709        C  0.16883471  0.41272584  0.45807893     0.40100
C710        C  0.18465441  0.34646659  0.34031592     0.36700
C711        C  0.24140034  0.44211024  0.36472145     0.36400
C712        C  0.13571398  0.44171926  0.27838560     0.37200
N713        N  0.16339169  0.42829371  0.48024679    -0.43600
N714        N  0.18674185  0.33294367  0.31620701    -0.44100
N715        N  0.11552036  0.43851348  0.25931969    -0.41400
N716        N  0.26469846  0.44096346  0.38001365    -0.42900
H717        H  0.21989973  0.49206721  0.33439467     0.13300
H718        H  0.15069380  0.39653401  0.31777451     0.09800
H719        H  0.18310696  0.43718456  0.40352121     0.10800
H720        H  0.17021369  0.32057283  0.39539504     0.16700
C721        C  0.17172735  0.24727397  0.46805584    -0.01600
C722        C  0.20391509  0.24166405  0.45891346     0.07000
C723        C  0.22010476  0.26577906  0.44232077    -0.07500
C724        C  0.20879626  0.29680147  0.44199692     0.04500
C725        C  0.17724467  0.30404529  0.45350251    -0.14800
C726        C  0.15807543  0.27781246  0.46358228    -0.08100
C727        C  0.22548688  0.21689381  0.47346894     0.05400
C728        C  0.22557148  0.18452229  0.46391993    -0.09200
C729        C  0.25257703  0.16489072  0.47066313     0.00400
C730        C  0.28125971  0.17840803  0.48399895     0.00300
C731        C  0.27896303  0.21008240  0.49570373    -0.12800
C732        C  0.25134652  0.22801321  0.49264446     0.00700
C733        C  0.24957098  0.13109763  0.46573714     0.40100
C734        C  0.25150698  0.25950543  0.50691332     0.36700
C735        C  0.15301761  0.22275675  0.48359771     0.36400
C736        C  0.23185683  0.32053632  0.43122344     0.37200
N737        N  0.24674680  0.10382534  0.46272869    -0.43600
N738        N  0.25155237  0.28472940  0.51813634    -0.44100
N739        N  0.25070736  0.33883125  0.42195596    -0.41400
N740        N  0.13786292  0.20305965  0.49595426    -0.42900
H741        H  0.13354364  0.28173934  0.47104980     0.13300
H742        H  0.24448700  0.26151802  0.43422831     0.09800
H743        H  0.20510640  0.17478765  0.45068690     0.10800
H744        H  0.29953077  0.22194302  0.50680274     0.16700
C745        C  0.40159650  0.20559638  0.34895422    -0.01600
C746        C  0.40084304  0.20307838  0.38250479     0.07000
C747        C  0.42884260  0.19454668  0.39880785    -0.07500
C748        C  0.45724429  0.18795348  0.38250293     0.04500
C749        C  0.45919660  0.19162574  0.34847985    -0.14800
C750        C  0.43024876  0.19978879  0.33236625    -0.08100
C751        C  0.37046444  0.20316176  0.40114196     0.05400
C752        C  0.34774264  0.17882387  0.39533244    -0.09200
C753        C  0.32616661  0.16939848  0.41923059     0.00400
C754        C  0.32915381  0.18282971  0.45054801     0.00300
C755        C  0.34576064  0.21245999  0.45280988    -0.12800
C756        C  0.36727820  0.22201277  0.42888373     0.00700
C757        C  0.30378799  0.14386648  0.41136838     0.40100
C758        C  0.38761163  0.24970730  0.43439714     0.36700
C759        C  0.37295365  0.21323644  0.33098633     0.36400
C760        C  0.48317637  0.17607370  0.40194903     0.37200
N761        N  0.28646329  0.12325242  0.40389831    -0.43600
N762        N  0.40381026  0.27196294  0.43893957    -0.44100
N763        N  0.50357059  0.16692648  0.41828624    -0.41400
N764        N  0.34987015  0.21919044  0.31670157    -0.42900
H765        H  0.42927394  0.20070324  0.30647391     0.13300
H766        H  0.42792040  0.19104091  0.42456511     0.09800
H767        H  0.34877405  0.16517220  0.37324262     0.10800
H768        H  0.34505984  0.22636329  0.47468799     0.16700
C769        C  0.53174222  0.26112253  0.19436640    -0.01600
C770        C  0.50319931  0.24358346  0.20124531     0.07000
C771        C  0.47620250  0.24931848  0.18200672    -0.07500
C772        C  0.47579424  0.27517870  0.16063705     0.04500
C773        C  0.50154273  0.29817057  0.16040053    -0.14800
C774        C  0.53105793  0.28704605  0.17272839    -0.08100
C775        C  0.49879667  0.22548109  0.23218291     0.05400
C776        C  0.49389423  0.24370254  0.25958252    -0.09200
C777        C  0.48763901  0.22996737  0.28937302     0.00400
C778        C  0.48816962  0.19611631  0.29377558     0.00300
C779        C  0.49116641  0.17753679  0.26559797    -0.12800
C780        C  0.49630697  0.19194463  0.23508863     0.00700
C781        C  0.48000254  0.25219733  0.31463227     0.40100
C782        C  0.49993829  0.17194856  0.20727370     0.36700
C783        C  0.56158896  0.25381861  0.21036876     0.36400
C784        C  0.44986594  0.27581849  0.13753063     0.37200
N785        N  0.47323929  0.27078483  0.33390280    -0.43600
N786        N  0.50286959  0.15592001  0.18489412    -0.44100
N787        N  0.42937994  0.27533179  0.11857940    -0.41400
N788        N  0.58559668  0.24777909  0.22300178    -0.42900
H789        H  0.55304619  0.30056878  0.16845947     0.13300
H790        H  0.45481296  0.23442903  0.18466325     0.09800
H791        H  0.49439141  0.26935515  0.25754487     0.10800
H792        H  0.49085800  0.15186990  0.26748490     0.16700
C793        C  0.17286972  0.49846009  0.21139621    -0.01600
C794        C  0.20545867  0.50830168  0.20781843     0.07000
C795        C  0.22010252  0.52426000  0.23347536    -0.07500
C796        C  0.20629096  0.52450337  0.26386940     0.04500
C797        C  0.17352576  0.51383195  0.26893960    -0.14800
C798        C  0.15672361  0.50305365  0.24114366    -0.08100
C799        C  0.22885440  0.49479509  0.18392286     0.05400
C800        C  0.23630749  0.50995213  0.15467282    -0.09200
C801        C  0.26615412  0.50481100  0.13874551     0.00400
C802        C  0.29060031  0.48629390  0.15330660     0.00300
C803        C  0.28135700  0.47028742  0.18191352    -0.12800
C804        C  0.25089429  0.47259927  0.19556476     0.00700
C805        C  0.27084253  0.51888300  0.10772022     0.40100
C806        C  0.24436567  0.45483342  0.22452336     0.36700
C807        C  0.15620846  0.48202969  0.18564209     0.36400
C808        C  0.22853132  0.53399973  0.28908738     0.37200
N809        N  0.27409606  0.52986301  0.08254553    -0.43600
N810        N  0.23904578  0.44081454  0.24774399    -0.44100
N811        N  0.24715374  0.54193908  0.30843373    -0.41400
N812        N  0.14272080  0.46880071  0.16504185    -0.42900
H813        H  0.13175846  0.49571514  0.24320961     0.13300
H814        H  0.24507005  0.53204441  0.23097141     0.09800
H815        H  0.21951380  0.52687499  0.14496180     0.10800
H816        H  0.29846647  0.45658239  0.19539481     0.16700
C817        C  0.40972718  0.36448655  0.13843046    -0.01600
C818        C  0.40296532  0.37624405  0.16923349     0.07000
C819        C  0.42080614  0.36522532  0.19532367    -0.07500
C820        C  0.44829352  0.34699049  0.19034731     0.04500
C821        C  0.45987227  0.34206413  0.15861379    -0.14800
C822        C  0.43774232  0.34767621  0.13345401    -0.08100
C823        C  0.38126153  0.40351587  0.17296836     0.05400
C824        C  0.34984827  0.40057431  0.16113064    -0.09200
C825        C  0.33259753  0.42733528  0.15233888     0.00400
C826        C  0.34502100  0.45865136  0.15910947     0.00300
C827        C  0.37659266  0.46089657  0.17197994    -0.12800
C828        C  0.39410285  0.43401782  0.17983325     0.00700
C829        C  0.30332435  0.42140476  0.13412547     0.40100
C830        C  0.42615011  0.43871378  0.19292360     0.36700
C831        C  0.38977819  0.37123487  0.11083319     0.36400
C832        C  0.46479308  0.33537506  0.21831616     0.37200
N833        N  0.27977114  0.41633662  0.11985833    -0.43600
N834        N  0.45162499  0.44288017  0.20374428    -0.44100
N835        N  0.47735154  0.32623558  0.24122221    -0.41400
N836        N  0.37365335  0.37614732  0.08874322    -0.42900
H837        H  0.44172933  0.33984587  0.10937813     0.13300
H838        H  0.41429036  0.37234354  0.21941660     0.09800
H839        H  0.34017937  0.37708301  0.15533421     0.10800
H840        H  0.38896198  0.48362613  0.17394669     0.16700
C841        C  0.52019558  0.19201271  0.72890129    -0.01600
C842        C  0.49693982  0.21310046  0.74166004     0.07000
C843        C  0.46703314  0.21346967  0.72624430    -0.07500
C844        C  0.46085276  0.19650573  0.69779668     0.04500
C845        C  0.48655572  0.18126650  0.68072449    -0.14800
C846        C  0.51484848  0.17646596  0.69894365    -0.08100
C847        C  0.50412075  0.23840357  0.76714189     0.05400
C848        C  0.53288292  0.25587255  0.76514459    -0.09200
C849        C  0.53881815  0.28331655  0.78352081     0.00400
C850        C  0.51345690  0.29786633  0.80162341     0.00300
C851        C  0.48640686  0.27779245  0.80733704    -0.12800
C852        C  0.48174336  0.24844852  0.79069075     0.00700
C853        C  0.57234618  0.29301298  0.78417591     0.40100
C854        C  0.45387315  0.22905907  0.79835891     0.36700
C855        C  0.55057378  0.18721413  0.74494875     0.36400
C856        C  0.42713119  0.19505082  0.68905145     0.37200
N857        N  0.59963382  0.29919618  0.78428811    -0.43600
N858        N  0.43165627  0.21333824  0.80459103    -0.44100
N859        N  0.39977676  0.19435721  0.68342618    -0.41400
N860        N  0.57511309  0.18355379  0.75758294    -0.42900
H861        H  0.53418132  0.16305045  0.68837013     0.13300
H862        H  0.44822076  0.22827789  0.73577592     0.09800
H863        H  0.55123857  0.24843669  0.74853313     0.10800
H864        H  0.46769718  0.28605986  0.82318411     0.16700
C865        C  0.40039614  0.16004667  0.61039031    -0.01600
C866        C  0.39479730  0.18884133  0.59478788     0.07000
C867        C  0.41478266  0.21517471  0.60106816    -0.07500
C868        C  0.44314640  0.21183374  0.61878556     0.04500
C869        C  0.45246770  0.18098843  0.62938440    -0.14800
C870        C  0.42855365  0.15660740  0.62797413    -0.08100
C871        C  0.37383014  0.18902417  0.56646040     0.05400
C872        C  0.34098052  0.18237251  0.56985909    -0.09200
C873        C  0.32214434  0.17388664  0.54326241     0.00400
C874        C  0.33561310  0.17520153  0.51182158     0.00300
C875        C  0.36922255  0.18001439  0.50950228    -0.12800
C876        C  0.38794848  0.18792100  0.53598383     0.00700
C877        C  0.29027917  0.16110052  0.54966288     0.40100
C878        C  0.42215825  0.19245683  0.53134879     0.36700
C879        C  0.37895378  0.13278878  0.60664000     0.36400
C880        C  0.46163359  0.24057266  0.62528625     0.37200
N881        N  0.26484597  0.15081852  0.55501518    -0.43600
N882        N  0.44948000  0.19622903  0.52730827    -0.44100
N883        N  0.47581069  0.26409407  0.62994151    -0.41400
N884        N  0.36178036  0.11100477  0.60354885    -0.42900
H885        H  0.43116669  0.13462799  0.64065009     0.13300
H886        H  0.40937155  0.23781755  0.59011742     0.09800
H887        H  0.33073710  0.18116434  0.59370055     0.10800
H888        H  0.38131871  0.17656391  0.48684415     0.16700
C889        C  0.74641366  0.19771370  0.51697482    -0.01600
C890        C  0.75568684  0.22305709  0.49678498     0.07000
C891        C  0.73665605  0.22822555  0.46987287    -0.07500
C892        C  0.70554265  0.21508837  0.46681518     0.04500
C893        C  0.69436599  0.18948911  0.48731034    -0.14800
C894        C  0.71683093  0.18061139  0.51147599    -0.08100
C895        C  0.77772896  0.25071573  0.50642302     0.05400
C896        C  0.81179404  0.24992685  0.50485610    -0.09200
C897        C  0.83104480  0.27848231  0.50619642     0.00400
C898        C  0.81613128  0.30865480  0.50723868     0.00300
C899        C  0.78226826  0.30836828  0.51100299    -0.12800
C900        C  0.76360306  0.28055563  0.51150488     0.00700
C901        C  0.86558570  0.27601245  0.50700405     0.40100
C902        C  0.72916004  0.28368604  0.51514247     0.36700
C903        C  0.76655630  0.18941277  0.54378055     0.36400
C904        C  0.68651466  0.23328396  0.44473800     0.37200
N905        N  0.89331820  0.27393645  0.50843076    -0.43600
N906        N  0.70159015  0.28624921  0.51771047    -0.44100
N907        N  0.67384167  0.24907060  0.42601201    -0.41400
N908        N  0.78308341  0.18259186  0.56500429    -0.42900
H909        H  0.71016493  0.16178851  0.52787394     0.13300
H910        H  0.74399939  0.24745135  0.45401378     0.09800
H911        H  0.82331340  0.22723247  0.50164315     0.10800
H912        H  0.76987076  0.33062408  0.51328211     0.16700
C913        C  0.63259478  0.19110745  0.40197239    -0.01600
C914        C  0.59939887  0.19672730  0.40541571     0.07000
C915        C  0.58468672  0.18834540  0.43431418    -0.07500
C916        C  0.60281464  0.18002044  0.46081494     0.04500
C917        C  0.63705017  0.18155638  0.45943903    -0.14800
C918        C  0.65026507  0.18037893  0.42838094    -0.08100
C919        C  0.57793237  0.20597835  0.37865797     0.05400
C920        C  0.57919959  0.18880856  0.34995244    -0.09200
C921        C  0.55210111  0.18583300  0.33035017     0.00400
C922        C  0.52198769  0.19715496  0.34155136     0.00300
C923        C  0.52320161  0.22060494  0.36586262    -0.12800
C924        C  0.55108449  0.22533624  0.38426385     0.00700
C925        C  0.55528687  0.16655607  0.30180817     0.40100
C926        C  0.55008224  0.24691185  0.41133656     0.36700
C927        C  0.64967889  0.19867150  0.37288437     0.36400
C928        C  0.58542007  0.16746063  0.48789616     0.37200
N929        N  0.55871353  0.15096831  0.27918375    -0.43600
N930        N  0.54916413  0.26382935  0.43327022    -0.44100
N931        N  0.57178056  0.15659062  0.50939841    -0.41400
N932        N  0.66342267  0.20514269  0.34970834    -0.42900
H933        H  0.67535884  0.17451072  0.42523007     0.13300
H934        H  0.55873391  0.18798235  0.43625655     0.09800
H935        H  0.59984772  0.17446367  0.34443695     0.10800
H936        H  0.50178601  0.23290419  0.37302523     0.16700
C937        C  0.61669464  0.18442198  0.57093079    -0.01600
C938        C  0.59509039  0.20927264  0.56531622     0.07000
C939        C  0.60119966  0.22972919  0.53975444    -0.07500
C940        C  0.62498588  0.22280527  0.51700136     0.04500
C941        C  0.64302460  0.19408812  0.51931298    -0.14800
C942        C  0.64199724  0.17896646  0.54950888    -0.08100
C943        C  0.56448642  0.21141228  0.58376584     0.05400
C944        C  0.56524719  0.21833352  0.61664966    -0.09200
C945        C  0.53797745  0.21276820  0.63584913     0.00400
C946        C  0.51162396  0.19418163  0.62349974     0.00300
C947        C  0.50952253  0.19240304  0.58948646    -0.12800
C948        C  0.53468201  0.20269789  0.56981445     0.00700
C949        C  0.53542813  0.23257241  0.66390008     0.40100
C950        C  0.52890290  0.20466211  0.53573834     0.36700
C951        C  0.61052095  0.16134505  0.59574877     0.36400
C952        C  0.62753526  0.24491672  0.49091459     0.37200
N953        N  0.53359674  0.25012566  0.68522383    -0.43600
N954        N  0.52353724  0.20717722  0.50860825    -0.44100
N955        N  0.62733024  0.26413870  0.47120785    -0.41400
N956        N  0.60480616  0.14256791  0.61515945    -0.42900
H957        H  0.65822321  0.15976575  0.55465782     0.13300
H958        H  0.58572569  0.24995598  0.53625892     0.09800
H959        H  0.58681616  0.22916043  0.62704566     0.10800
H960        H  0.48849656  0.18152556  0.57814823     0.16700
C961        C  0.24693915  0.46910970  0.70059652    -0.01600
C962        C  0.23431825  0.48115877  0.72939333     0.07000
C963        C  0.20168085  0.49016343  0.72895202    -0.07500
C964        C  0.18325104  0.48945594  0.69986668     0.04500
C965        C  0.19878144  0.48416561  0.66986529    -0.14800
C966        C  0.23111293  0.47422600  0.67156880    -0.08100
C967        C  0.25823226  0.49087333  0.75551103     0.05400
C968        C  0.28452333  0.50892820  0.74501157    -0.09200
C969        C  0.31383343  0.50949640  0.76137166     0.00400
C970        C  0.31694794  0.49628049  0.79296256     0.00300
C971        C  0.28831986  0.48293606  0.80609803    -0.12800
C972        C  0.25956853  0.47903082  0.78723552     0.00700
C973        C  0.34009752  0.52332802  0.74324614     0.40100
C974        C  0.23235613  0.46201419  0.80040572     0.36700
C975        C  0.27736610  0.45289161  0.70017415     0.36400
C976        C  0.14931816  0.49589397  0.70170157     0.37200
N977        N  0.36023386  0.53513364  0.72810023    -0.43600
N978        N  0.21040485  0.44853488  0.81105194    -0.44100
N979        N  0.12212495  0.50125343  0.70336351    -0.41400
N980        N  0.30147852  0.43950908  0.70026561    -0.42900
H981        H  0.24422505  0.46959666  0.64970123     0.13300
H982        H  0.19083887  0.49854529  0.75091718     0.09800
H983        H  0.28337737  0.51950221  0.72132063     0.10800
H984        H  0.28888106  0.47369444  0.83022721     0.16700
C985        C  0.22428920  0.38862155  0.51561638    -0.01600
C986        C  0.20766251  0.38488344  0.54478290     0.07000
C987        C  0.18698117  0.35854743  0.54800630    -0.07500
C988        C  0.17822743  0.33988048  0.52142577     0.04500
C989        C  0.18794161  0.34944950  0.49004439    -0.14800
C990        C  0.21463363  0.37071577  0.48858947    -0.08100
C991        C  0.20517085  0.41147435  0.56849258     0.05400
C992        C  0.19527679  0.44090505  0.55697224    -0.09200
C993        C  0.18774093  0.46594418  0.57750306     0.00400
C994        C  0.19195574  0.46307293  0.61142949     0.00300
C995        C  0.19930965  0.43221151  0.62277592    -0.12800
C996        C  0.20683911  0.40712872  0.60190469     0.00700
C997        C  0.17626671  0.49437192  0.56222999     0.40100
C998        C  0.21651549  0.37724519  0.61546994     0.36700
C999        C  0.24948958  0.41243285  0.51230679     0.36400
C1000       C  0.15539275  0.31430848  0.52726026     0.37200
N1001       N  0.16798227  0.51715663  0.54940792    -0.43600
N1002       N  0.22426431  0.35329850  0.62635393    -0.44100
N1003       N  0.13694502  0.29426691  0.53314312    -0.41400
N1004       N  0.26976755  0.43145531  0.50973565    -0.42900
H1005       H  0.22576456  0.37619630  0.46591204     0.13300
H1006       H  0.17488933  0.35437525  0.57058994     0.09800
H1007       H  0.19248035  0.44422027  0.53144127     0.10800
H1008       H  0.19898873  0.42705984  0.64813284     0.16700
C1009       C  0.18916503  0.75083619  0.50919851    -0.01600
C1010       C  0.22101295  0.75788868  0.49933916     0.07000
C1011       C  0.23712897  0.73487136  0.48187842    -0.07500
C1012       C  0.22355564  0.70468027  0.47584315     0.04500
C1013       C  0.19221293  0.69584411  0.48773744    -0.14800
C1014       C  0.17511680  0.72021924  0.50339417    -0.08100
C1015       C  0.23967783  0.78796169  0.50743183     0.05400
C1016       C  0.25765955  0.78995946  0.53597035    -0.09200
C1017       C  0.28328025  0.81233789  0.53936070     0.00400
C1018       C  0.29416204  0.83031473  0.51226161     0.00300
C1019       C  0.26955377  0.83517346  0.48960046    -0.12800
C1020       C  0.24411194  0.81274366  0.48520256     0.00700
C1021       C  0.29447292  0.81916888  0.57156663     0.40100
C1022       C  0.22368084  0.81489113  0.45727153     0.36700
C1023       C  0.17059964  0.77460696  0.52538556     0.36400
C1024       C  0.24352800  0.68382809  0.45723328     0.37200
N1025       N  0.30274284  0.82496895  0.59753356    -0.43600
N1026       N  0.20738963  0.81642362  0.43474580    -0.44100
N1027       N  0.25988490  0.66773563  0.44200629    -0.41400
N1028       N  0.15560997  0.79381691  0.53809836    -0.42900
H1029       H  0.15111280  0.71513056  0.51210443     0.13300
H1030       H  0.26129315  0.74036067  0.47347660     0.09800
H1031       H  0.25222538  0.77365415  0.55531183     0.10800
H1032       H  0.26976128  0.85656812  0.47586075     0.16700
C1033       C  0.17689889  0.54858062  0.38467905    -0.01600
C1034       C  0.18499254  0.58040255  0.37633619     0.07000
C1035       C  0.18418337  0.58844523  0.34371027    -0.07500
C1036       C  0.17419082  0.56624545  0.32032679     0.04500
C1037       C  0.17169509  0.53326273  0.32806230    -0.14800
C1038       C  0.17189471  0.52567364  0.36094785    -0.08100
C1039       C  0.19197134  0.60512328  0.40173434     0.05400
C1040       C  0.20852231  0.59558037  0.42931609    -0.09200
C1041       C  0.20252951  0.61012453  0.45870583     0.00400
C1042       C  0.19000890  0.64135343  0.45965711     0.00300
C1043       C  0.17927441  0.65404227  0.43013031    -0.12800
C1044       C  0.17815586  0.63568557  0.40198671     0.00700
C1045       C  0.20118896  0.58870060  0.48550012     0.40100
C1046       C  0.16036612  0.64817345  0.37515410     0.36700
C1047       C  0.17059663  0.53863958  0.41721541     0.36400
C1048       C  0.16494911  0.57868255  0.28944386     0.37200
N1049       N  0.19910785  0.57061943  0.50619112    -0.43600
N1050       N  0.14614400  0.65852056  0.35377688    -0.44100
N1051       N  0.15734854  0.58883059  0.26484919    -0.41400
N1052       N  0.16543432  0.53033856  0.44310707    -0.42900
H1053       H  0.16562554  0.50171259  0.36840316     0.13300
H1054       H  0.18999636  0.61245302  0.33630003     0.09800
H1055       H  0.22077867  0.57302686  0.42919309     0.10800
H1056       H  0.16839461  0.67729225  0.42988732     0.16700
C1057       C  0.24181445  0.61955489  0.54888033    -0.01600
C1058       C  0.22007260  0.60914915  0.57286303     0.07000
C1059       C  0.19103151  0.62582850  0.57528773    -0.07500
C1060       C  0.18161666  0.64733070  0.55186102     0.04500
C1061       C  0.19808091  0.64833386  0.52219634    -0.14800
C1062       C  0.23051178  0.63839541  0.52332795    -0.08100
C1063       C  0.22446096  0.58049815  0.59428747     0.05400
C1064       C  0.21004852  0.58105375  0.62467086    -0.09200
C1065       C  0.19880081  0.55311696  0.63938735     0.00400
C1066       C  0.20442237  0.52287768  0.62515948     0.00300
C1067       C  0.22791939  0.52280928  0.60069687    -0.12800
C1068       C  0.23563981  0.55059429  0.58347104     0.00700
C1069       C  0.18073585  0.55744902  0.66836963     0.40100
C1070       C  0.25222150  0.54631288  0.55352723     0.36700
C1071       C  0.27570831  0.61278635  0.55058396     0.36400
C1072       C  0.15499718  0.66775955  0.55916230     0.37200
N1073       N  0.16692439  0.56319998  0.69163202    -0.43600
N1074       N  0.26555382  0.54201105  0.52964697    -0.44100
N1075       N  0.13401294  0.68428855  0.56569700    -0.41400
N1076       N  0.30300985  0.60779770  0.55190806    -0.42900
H1077       H  0.24631405  0.64283933  0.50337454     0.13300
H1078       H  0.17463499  0.62154160  0.59492499     0.09800
H1079       H  0.20448510  0.60374518  0.63559171     0.10800
H1080       H  0.23767962  0.50060995  0.59231971     0.16700
C1081       C  0.45158983  0.78947171  0.25147815    -0.01600
C1082       C  0.48034274  0.78436844  0.23464731     0.07000
C1083       C  0.50711941  0.80390050  0.24332321    -0.07500
C1084       C  0.50629317  0.82499073  0.27034473     0.04500
C1085       C  0.47962632  0.82435026  0.29181521    -0.14800
C1086       C  0.45136639  0.80890505  0.27908319    -0.08100
C1087       C  0.48345195  0.75505747  0.21309051     0.05400
C1088       C  0.48454076  0.75621366  0.17906295    -0.09200
C1089       C  0.48501876  0.72784493  0.15971484     0.00400
C1090       C  0.48520673  0.69734521  0.17427701     0.00300
C1091       C  0.48320402  0.69716688  0.20821544    -0.12800
C1092       C  0.48228648  0.72467355  0.22706250     0.00700
C1093       C  0.48367417  0.73074771  0.12537112     0.40100
C1094       C  0.47917006  0.72048328  0.26119283     0.36700
C1095       C  0.42200639  0.77336960  0.24189412     0.36400
C1096       C  0.53424319  0.84488570  0.27685080     0.37200
N1097       N  0.48231426  0.73319382  0.09778119    -0.43600
N1098       N  0.47614240  0.71619413  0.28835230    -0.44100
N1099       N  0.55684366  0.86060500  0.28207540    -0.41400
N1100       N  0.39823636  0.76059933  0.23426522    -0.42900
H1101       H  0.42853752  0.81037047  0.29117392     0.13300
H1102       H  0.52924360  0.80169594  0.22992070     0.09800
H1103       H  0.48415875  0.77920627  0.16751635     0.10800
H1104       H  0.48165347  0.67468375  0.22060281     0.16700
C1105       C  0.43698791  0.58634650  0.16723649    -0.01600
C1106       C  0.40653255  0.59724235  0.17621024     0.07000
C1107       C  0.40218912  0.62985310  0.18034412    -0.07500
C1108       C  0.42741665  0.65187784  0.17511958     0.04500
C1109       C  0.45913716  0.64121357  0.16761881    -0.14800
C1110       C  0.46256095  0.60795879  0.16311616    -0.08100
C1111       C  0.37796761  0.57555232  0.17432539     0.05400
C1112       C  0.37238125  0.55259884  0.19805442    -0.09200
C1113       C  0.35157664  0.52638289  0.19203713     0.00400
C1114       C  0.33883660  0.52147452  0.16061210     0.00300
C1115       C  0.33915080  0.54828295  0.14017217    -0.12800
C1116       C  0.35906647  0.57460621  0.14632394     0.00700
C1117       C  0.34547652  0.50446703  0.21788610     0.40100
C1118       C  0.36249130  0.59849427  0.12175360     0.36700
C1119       C  0.44190912  0.55324018  0.15956691     0.36400
C1120       C  0.41810171  0.68475965  0.17442414     0.37200
N1121       N  0.34108329  0.48698131  0.23879345    -0.43600
N1122       N  0.36528256  0.61755446  0.10202595    -0.44100
N1123       N  0.40987235  0.71089954  0.17399638    -0.41400
N1124       N  0.44566469  0.52676178  0.15319412    -0.42900
H1125       H  0.48532406  0.59881613  0.15483594     0.13300
H1126       H  0.37817599  0.63827898  0.18537560     0.09800
H1127       H  0.38545476  0.55432952  0.22059608     0.10800
H1128       H  0.32724555  0.54710104  0.11708922     0.16700
C1129       C  0.74504324  0.50031312  0.18296821    -0.01600
C1130       C  0.74663337  0.50469690  0.21672364     0.07000
C1131       C  0.71789301  0.51031304  0.23256116    -0.07500
C1132       C  0.68815170  0.51106772  0.21650242     0.04500
C1133       C  0.68552537  0.50682057  0.18227356    -0.14800
C1134       C  0.71497932  0.50187831  0.16606415    -0.08100
C1135       C  0.77594379  0.49898529  0.23784488     0.05400
C1136       C  0.79510742  0.52435632  0.25030279    -0.09200
C1137       C  0.81509785  0.52060063  0.27799226     0.00400
C1138       C  0.81430885  0.49171864  0.29566063     0.00300
C1139       C  0.79975918  0.46535378  0.27897525    -0.12800
C1140       C  0.78024074  0.46890662  0.25155165     0.00700
C1141       C  0.83455040  0.54736825  0.28875824     0.40100
C1142       C  0.76262632  0.44144681  0.23931612     0.36700
C1143       C  0.77387606  0.49342391  0.16539844     0.36400
C1144       C  0.66110233  0.51691853  0.23714684     0.37200
N1145       N  0.85022261  0.56883443  0.29732020    -0.43600
N1146       N  0.74834168  0.41955980  0.22954127    -0.44100
N1147       N  0.64066366  0.52196132  0.25511685    -0.41400
N1148       N  0.79709233  0.48785985  0.15139244    -0.42900
H1149       H  0.71455245  0.49824871  0.14034592     0.13300
H1150       H  0.71856655  0.51308377  0.25845343     0.09800
H1151       H  0.79312379  0.54763214  0.23954807     0.10800
H1152       H  0.80164532  0.44143046  0.28796199     0.16700
C1153       C  0.58381286  0.46015351  0.21065919    -0.01600
C1154       C  0.58837832  0.42891521  0.19989187     0.07000
C1155       C  0.61740550  0.42156593  0.18473229    -0.07500
C1156       C  0.63952876  0.44568649  0.17612107     0.04500
C1157       C  0.63211481  0.47814689  0.18157218    -0.14800
C1158       C  0.60589144  0.48399613  0.20235661    -0.08100
C1159       C  0.56066222  0.40635581  0.19649176     0.05400
C1160       C  0.53521899  0.41547657  0.17691452    -0.09200
C1161       C  0.51192621  0.39354148  0.16649985     0.00400
C1162       C  0.51529374  0.36024488  0.17298521     0.00300
C1163       C  0.53701350  0.35312143  0.19831912    -0.12800
C1164       C  0.56002627  0.37565000  0.20943743     0.00700
C1165       C  0.48636142  0.40649769  0.14724351     0.40100
C1166       C  0.58202206  0.36729151  0.23480388     0.36700
C1167       C  0.55505015  0.46901284  0.22762141     0.36400
C1168       C  0.66868579  0.43636910  0.16023811     0.37200
N1169       N  0.46625194  0.41829720  0.13243227    -0.43600
N1170       N  0.59936549  0.36087525  0.25551164    -0.44100
N1171       N  0.69207338  0.42851753  0.14775648    -0.41400
N1172       N  0.53193761  0.47643056  0.24086792    -0.42900
H1173       H  0.60056270  0.50779039  0.21029217     0.13300
H1174       H  0.62159138  0.39726819  0.17723484     0.09800
H1175       H  0.53433702  0.43977128  0.16836453     0.10800
H1176       H  0.53620910  0.33059382  0.21034386     0.16700
C1177       C  0.63154512  0.59278264  0.19142473    -0.01600
C1178       C  0.59923492  0.59482907  0.18192151     0.07000
C1179       C  0.58487728  0.57008566  0.16441735    -0.07500
C1180       C  0.60078654  0.54191230  0.15907168     0.04500
C1181       C  0.63347724  0.53832448  0.16959256    -0.14800
C1182       C  0.64890286  0.56548930  0.18362009    -0.08100
C1183       C  0.57834035  0.62172070  0.18951226     0.05400
C1184       C  0.57943468  0.64795776  0.16923355    -0.09200
C1185       C  0.55129193  0.66442801  0.16225684     0.00400
C1186       C  0.52094192  0.65229972  0.17317831     0.00300
C1187       C  0.52179030  0.63051402  0.19885244    -0.12800
C1188       C  0.55039174  0.61582165  0.20745731     0.00700
C1189       C  0.55416956  0.69150641  0.14125016     0.40100
C1190       C  0.55006332  0.59242711  0.23263716     0.36700
C1191       C  0.64660327  0.61735415  0.21087783     0.36400
C1192       C  0.58069379  0.51614115  0.14689174     0.37200
N1193       N  0.55716551  0.71303606  0.12431636    -0.43600
N1194       N  0.54998090  0.57398354  0.25310937    -0.44100
N1195       N  0.56341312  0.49554716  0.13929735    -0.41400
N1196       N  0.65848556  0.63676173  0.22702021    -0.42900
H1197       H  0.67416639  0.56541172  0.18996764     0.13300
H1198       H  0.55995352  0.57209806  0.15664249     0.09800
H1199       H  0.60144853  0.65358689  0.15642629     0.10800
H1200       H  0.50008975  0.62372653  0.21149369     0.16700
loop_ 
_geom_bond_atom_site_label_1 
_geom_bond_atom_site_label_2 
_geom_bond_distance 
_geom_bond_site_symmetry_2 
_ccdc_geom_bond_type 
In1           O3   2.272       .  S
In1           O4   2.333       .  S
In1          O12   2.337       .  S
In1           O6   2.260       .  S
In1           O8   2.293       .  S
In1           O9   2.278       .  S
In1          O10   2.241       .  S
In1          O13   2.278       .  S
C2            O8   1.267       .  A
C2           O10   1.261       .  A
C2           C18   1.477       .  S
O3           C11   1.256       .  A
O4           C11   1.258       .  A
C5           O12   1.264       .  A
C5            O6   1.255       .  A
C5           C41   1.490       .  S
C7            O9   1.257       .  A
C7           O13   1.255       .  A
C7          C163   1.475   1_556  S
C11         C325   1.577       .  S
In14         O16   2.264       .  S
In14         O17   2.354       .  S
In14         O25   2.290       .  S
In14         O19   2.245       .  S
In14         O21   2.268       .  S
In14         O22   2.284       .  S
In14         O23   2.314       .  S
In14         O26   2.283       .  S
C15          O21   1.258       .  A
C15          O23   1.264       .  A
C15          C31   1.489       .  S
O16          C24   1.259       .  A
O17          C24   1.265       .  A
C18          O25   1.264       .  A
C18          O19   1.261       .  A
C20          O22   1.257       .  A
C20          O26   1.258       .  A
C20         C176   1.484       .  S
C24         C326   1.563       .  S
In27         O29   2.276       .  S
In27         O30   2.355       .  S
In27         O38   2.268       .  S
In27         O32   2.308       .  S
In27         O34   2.280       .  S
In27         O35   2.299       .  S
In27         O36   2.294       .  S
In27         O39   2.285       .  S
C28          O34   1.260       .  A
C28          O36   1.262       .  A
C28          C44   1.488       .  S
O29          C37   1.260       .  A
O30          C37   1.265       .  A
C31          O38   1.260       .  A
C31          O32   1.264       .  A
C33          O35   1.258       .  A
C33          O39   1.257       .  A
C33         C189   1.489   1_556  S
C37         C334   1.579       .  S
In40         O42   2.250       .  S
In40         O43   2.396       .  S
In40         O51   2.273       .  S
In40         O45   2.285       .  S
In40         O47   2.263       .  S
In40         O48   2.314       .  S
In40         O49   2.330       .  S
In40         O52   2.303       .  S
C41          O47   1.256       .  A
C41          O49   1.262       .  A
O42          C50   1.254       .  A
O43          C50   1.263       .  A
C44          O51   1.265       .  A
C44          O45   1.267       .  A
C46          O48   1.259       .  A
C46          O52   1.258       .  A
C46         C202   1.500   1_556  S
C50         C332   1.578       .  S
In53         O55   2.394       .  S
In53         O56   2.274       .  S
In53         O64   2.269       .  S
In53         O58   2.292       .  S
In53         O60   2.261       .  S
In53         O61   2.335       .  S
In53         O62   2.308       .  S
In53         O65   2.291       .  S
C54          O60   1.260       .  A
C54          O62   1.264       .  A
C54          C96   1.485       .  S
O55          C63   1.265       .  A
O56          C63   1.252       .  A
C57          O64   1.261       .  A
C57          O58   1.263       .  A
C57          C67   1.484       .  S
C59          O61   1.260       .  A
C59          O65   1.254       .  A
C59         C254   1.500   1_565  S
C63         C328   1.592       .  S
In66         O68   2.371       .  S
In66         O69   2.222       .  S
In66         O77   2.273       .  S
In66         O71   2.271       .  S
In66         O73   2.267       .  S
In66         O74   2.280       .  S
In66         O75   2.298       .  S
In66         O78   2.271       .  S
C67          O73   1.259       .  A
C67          O75   1.265       .  A
O68          C76   1.261       .  A
O69          C76   1.259       .  A
C70          O77   1.260       .  A
C70          O71   1.261       .  A
C70          C80   1.475       .  S
C72          O74   1.260       .  A
C72          O78   1.259       .  A
C72         C241   1.482   1_565  S
C76         C327   1.568       .  S
In79         O81   2.270       .  S
In79         O82   2.371       .  S
In79         O90   2.298       .  S
In79         O84   2.306       .  S
In79         O86   2.271       .  S
In79         O87   2.294       .  S
In79         O88   2.264       .  S
In79         O91   2.299       .  S
C80          O86   1.262       .  A
C80          O88   1.260       .  A
O81          C89   1.254       .  A
O82          C89   1.261       .  A
C83          O90   1.261       .  A
C83          O84   1.262       .  A
C83          C93   1.496       .  S
C85          O87   1.259       .  A
C85          O91   1.261       .  A
C85         C215   1.493   1_565  S
C89         C333   1.588       .  S
In92         O94   2.372       .  S
In92         O95   2.299       .  S
In92        O103   2.303       .  S
In92         O97   2.258       .  S
In92         O99   2.295       .  S
In92        O100   2.291       .  S
In92        O101   2.309       .  S
In92        O104   2.301       .  S
C93          O99   1.260       .  A
C93         O101   1.262       .  A
O94         C102   1.265       .  A
O95         C102   1.255       .  A
C96         O103   1.264       .  A
C96          O97   1.261       .  A
C98         O100   1.258       .  A
C98         O104   1.259       .  A
C98         C228   1.491   1_565  S
C102        C336   1.586       .  S
In105       O107   2.196       .  S
In105       O108   2.400       .  S
In105       O116   2.310       .  S
In105       O110   2.243       .  S
In105       O112   2.311       .  S
In105       O113   2.278       .  S
In105       O114   2.234       .  S
In105       O117   2.273       .  S
C106        O112   1.266       .  A
C106        O114   1.255       .  A
C106        C122   1.478       .  S
O107        C115   1.254       .  A
O108        C115   1.261       .  A
C109        O116   1.267       .  A
C109        O110   1.255       .  A
C109        C132   1.480       .  S
C111        O113   1.262       .  A
C111        O117   1.261       .  A
C111        C293   1.484   1_655  S
C115        C331   1.559       .  S
In118       O120   2.265       .  S
In118       O121   2.370       .  S
In118       O129   2.294       .  S
In118       O123   2.237       .  S
In118       O125   2.325       .  S
In118       O126   2.300       .  S
In118       O127   2.271       .  S
In118       O130   2.299       .  S
C119        O125   1.264       .  A
C119        O127   1.256       .  A
C119        C148   1.491       .  S
O120        C128   1.254       .  A
O121        C128   1.262       .  A
C122        O129   1.266       .  A
C122        O123   1.263       .  A
C124        O126   1.258       .  A
C124        O130   1.258       .  A
C124        C306   1.491   1_655  S
C128        C335   1.565       .  S
In131       O133   2.328       .  S
In131       O134   2.302       .  S
In131       O142   2.280       .  S
In131       O136   2.307       .  S
In131       O138   2.302       .  S
In131       O139   2.262       .  S
In131       O140   2.264       .  S
In131       O143   2.292       .  S
C132        O138   1.258       .  A
C132        O140   1.257       .  A
O133        C141   1.261       .  A
O134        C141   1.264       .  A
C135        O142   1.260       .  A
C135        O136   1.266       .  A
C135        C145   1.492       .  S
C137        O139   1.257       .  A
C137        O143   1.262       .  A
C137        C280   1.482   1_655  S
C141        C330   1.574       .  S
In144       O146   2.338       .  S
In144       O147   2.267       .  S
In144       O155   2.315       .  S
In144       O149   2.267       .  S
In144       O151   2.287       .  S
In144       O152   2.282       .  S
In144       O153   2.305       .  S
In144       O156   2.281       .  S
C145        O151   1.261       .  A
C145        O153   1.261       .  A
O146        C154   1.259       .  A
O147        C154   1.264       .  A
C148        O155   1.263       .  A
C148        O149   1.258       .  A
C150        O152   1.261       .  A
C150        O156   1.259       .  A
C150        C267   1.484   1_655  S
C154        C329   1.587       .  S
In157       O159   2.264       .  S
In157       O160   2.350       .  S
In157       O168   2.324       .  S
In157       O162   2.265       .  S
In157       O164   2.238       .  S
In157       O165   2.273       .  S
In157       O166   2.289       .  S
In157       O169   2.259       .  S
C158        O164   1.262       .  A
C158        O166   1.267       .  A
C158        C200   1.478       .  S
O159        C167   1.258       .  A
O160        C167   1.260       .  A
C161        O168   1.263       .  A
C161        O162   1.255       .  A
C161        C171   1.489       .  S
C163        O165   1.260       .  A
C163        O169   1.257       .  A
C167        C320   1.577       .  S
In170       O172   2.411       .  S
In170       O173   2.191       .  S
In170       O181   2.303       .  S
In170       O175   2.262       .  S
In170       O177   2.257       .  S
In170       O178   2.278       .  S
In170       O179   2.316       .  S
In170       O182   2.273       .  S
C171        O177   1.257       .  A
C171        O179   1.265       .  A
O172        C180   1.263       .  A
O173        C180   1.257       .  A
C174        O181   1.265       .  A
C174        O175   1.259       .  A
C174        C184   1.488       .  S
C176        O178   1.262   1_556  A
C176        O182   1.261   1_556  A
C180        C319   1.563       .  S
In183       O185   2.287       .  S
In183       O186   2.376       .  S
In183       O194   2.285       .  S
In183       O188   2.319       .  S
In183       O190   2.270       .  S
In183       O191   2.305       .  S
In183       O192   2.299       .  S
In183       O195   2.285       .  S
C184        O190   1.262       .  A
C184        O192   1.264       .  A
O185        C193   1.258       .  A
O186        C193   1.262       .  A
C187        O194   1.261       .  A
C187        O188   1.264       .  A
C187        C197   1.497       .  S
C189        O191   1.260       .  A
C189        O195   1.256       .  A
C193        C314   1.582       .  S
In196       O198   2.313       .  S
In196       O199   2.378       .  S
In196       O207   2.297       .  S
In196       O201   2.239       .  S
In196       O203   2.326       .  S
In196       O204   2.304       .  S
In196       O205   2.281       .  S
In196       O208   2.320       .  S
C197        O203   1.265       .  A
C197        O205   1.258       .  A
O198        C206   1.256       .  A
O199        C206   1.266       .  A
C200        O207   1.265       .  A
C200        O201   1.260       .  A
C202        O204   1.257       .  A
C202        O208   1.260       .  A
C206        C313   1.583       .  S
In209       O211   2.356       .  S
In209       O212   2.254       .  S
In209       O220   2.321       .  S
In209       O214   2.267       .  S
In209       O216   2.238       .  S
In209       O217   2.292       .  S
In209       O218   2.298       .  S
In209       O221   2.293       .  S
C210        O216   1.260       .  A
C210        O218   1.264       .  A
C210        C226   1.478       .  S
O211        C219   1.267       .  A
O212        C219   1.260       .  A
C213        O220   1.262       .  A
C213        O214   1.259       .  A
C213        C236   1.491       .  S
C215        O217   1.259       .  A
C215        O221   1.261       .  A
C219        C318   1.585       .  S
In222       O224   2.280       .  S
In222       O225   2.369       .  S
In222       O233   2.312       .  S
In222       O227   2.239       .  S
In222       O229   2.331       .  S
In222       O230   2.307       .  S
In222       O231   2.272       .  S
In222       O234   2.294       .  S
C223        O229   1.265       .  A
C223        O231   1.256       .  A
C223        C252   1.492       .  S
O224        C232   1.253       .  A
O225        C232   1.264       .  A
C226        O233   1.266       .  A
C226        O227   1.257       .  A
C228        O230   1.257       .  A
C228        O234   1.256       .  A
C232        C317   1.582       .  S
In235       O237   2.262       .  S
In235       O238   2.371       .  S
In235       O246   2.274       .  S
In235       O240   2.273       .  S
In235       O242   2.256       .  S
In235       O243   2.275       .  S
In235       O244   2.328       .  S
In235       O247   2.276       .  S
C236        O242   1.256       .  A
C236        O244   1.267       .  A
O237        C245   1.259       .  A
O238        C245   1.268       .  A
C239        O246   1.263       .  A
C239        O240   1.264       .  A
C239        C249   1.484       .  S
C241        O243   1.259       .  A
C241        O247   1.259       .  A
C245        C322   1.573       .  S
In248       O250   2.274       .  S
In248       O251   2.386       .  S
In248       O259   2.272       .  S
In248       O253   2.311       .  S
In248       O255   2.282       .  S
In248       O256   2.288       .  S
In248       O257   2.280       .  S
In248       O260   2.334       .  S
C249        O255   1.262       .  A
C249        O257   1.262       .  A
O250        C258   1.257       .  A
O251        C258   1.261       .  A
C252        O259   1.262       .  A
C252        O253   1.264       .  A
C254        O256   1.254       .  A
C254        O260   1.260       .  A
C258        C321   1.579       .  S
In261       O263   2.259       .  S
In261       O264   2.366       .  S
In261       O272   2.286       .  S
In261       O266   2.280       .  S
In261       O268   2.263       .  S
In261       O269   2.282       .  S
In261       O270   2.318       .  S
In261       O273   2.272       .  S
C262        O268   1.257       .  A
C262        O270   1.263       .  A
C262        C304   1.489       .  S
O263        C271   1.262       .  A
O264        C271   1.266       .  A
C265        O272   1.263       .  A
C265        O266   1.260       .  A
C265        C275   1.486       .  S
C267        O269   1.261       .  A
C267        O273   1.258       .  A
C271        C323   1.573       .  S
In274       O276   2.250       .  S
In274       O277   2.356       .  S
In274       O285   2.261       .  S
In274       O279   2.305       .  S
In274       O281   2.294       .  S
In274       O282   2.292       .  S
In274       O283   2.281       .  S
In274       O286   2.276       .  S
C275        O281   1.262       .  A
C275        O283   1.258       .  A
O276        C284   1.255       .  A
O277        C284   1.260       .  A
C278        O285   1.261       .  A
C278        O279   1.264       .  A
C278        C288   1.485       .  S
C280        O282   1.259       .  A
C280        O286   1.257       .  A
C284        C324   1.560       .  S
In287       O289   2.303       .  S
In287       O290   2.335       .  S
In287       O298   2.235       .  S
In287       O292   2.285       .  S
In287       O294   2.260       .  S
In287       O295   2.289       .  S
In287       O296   2.315       .  S
In287       O299   2.285       .  S
C288        O294   1.257       .  A
C288        O296   1.264       .  A
O289        C297   1.255       .  A
O290        C297   1.261       .  A
C291        O298   1.259       .  A
C291        O292   1.265       .  A
C291        C301   1.471       .  S
C293        O295   1.258       .  A
C293        O299   1.257       .  A
C297        C316   1.557       .  S
In300       O302   2.239       .  S
In300       O303   2.371       .  S
In300       O311   2.320       .  S
In300       O305   2.257       .  S
In300       O307   2.280       .  S
In300       O308   2.288       .  S
In300       O309   2.241       .  S
In300       O312   2.284       .  S
C301        O307   1.263       .  A
C301        O309   1.261       .  A
O302        C310   1.257       .  A
O303        C310   1.269       .  A
C304        O311   1.265       .  A
C304        O305   1.257       .  A
C306        O308   1.261       .  A
C306        O312   1.260       .  A
C310        C315   1.566       .  S
C313       C1133   1.591       .  S
C313       C1157   1.573       .  S
C313       C1181   1.567       .  S
C314       C1090   1.584       .  S
C314       C1109   1.575       .  S
C314       C1186   1.564       .  S
C315       C1013   1.576       .  S
C315       C1042   1.554       .  S
C315       C1061   1.570       .  S
C316        C965   1.577       .  S
C316        C994   1.580       .  S
C316       C1066   1.580       .  S
C317        C893   1.597       .  S
C317        C917   1.549       .  S
C317        C941   1.586       .  S
C318        C845   1.587       .  S
C318        C869   1.555       .  S
C318        C946   1.584       .  S
C319        C802   1.586       .  S
C319        C826   1.563       .  S
C319       C1114   1.568       .  S
C320        C773   1.590       .  S
C320        C821   1.566       .  S
C320       C1162   1.592       .  S
C321        C749   1.571       .  S
C321        C778   1.580       .  S
C321        C922   1.557       .  S
C322        C730   1.576       .  S
C322        C754   1.569       .  S
C322        C874   1.552       .  S
C323        C701   1.567       .  S
C323        C797   1.580       .  S
C323       C1037   1.561       .  S
C324        C706   1.569       .  S
C324        C725   1.574       .  S
C324        C989   1.570       .  S
C325        C658   1.588       .  S
C325        C677   1.562       .  S
C325        C850   1.591       .  S
C326        C629   1.566       .  S
C326        C653   1.574       .  S
C326        C970   1.583       .  S
C327        C581   1.597       .  S
C327        C605   1.584       .  S
C327       C1018   1.603       .  S
C328        C557   1.575       .  S
C328        C586   1.579       .  S
C328       C1085   1.608       .  S
C329        C509   1.578       .  S
C329        C533   1.586       .  S
C329       C1138   1.599       .  S
C330        C485   1.569       .  S
C330        C514   1.563       .  S
C330        C898   1.574       .  S
C331        C437   1.580       .  S
C331        C461   1.611       .  S
C331        C490   1.592       .  S
C332        C413   1.571       .  S
C332        C466   1.579       .  S
C332        C682   1.556       .  S
C333        C365   1.572       .  S
C333        C389   1.603       .  S
C333        C610   1.591       .  S
C334        C394   1.581       .  S
C334        C418   1.567       .  S
C334        C634   1.565       .  S
C335        C346   1.597       .  S
C335        C442   1.575       .  S
C335        C538   1.577       .  S
C336        C341   1.592       .  S
C336        C370   1.567       .  S
C336        C562   1.576       .  S
C337        C338   1.411       .  A
C337        C342   1.397       .  A
C337        C351   1.448       .  S
C338        C343   1.535       .  S
C338        C339   1.422       .  A
C339        C340   1.439       .  A
C339        H358   1.083       .  S
C340        C341   1.424       .  A
C340        C352   1.439       .  S
C341        C342   1.420       .  A
C342        H357   1.080       .  S
C343        C344   1.400       .  A
C343        C348   1.417       .  A
C344        C345   1.405       .  A
C344        H359   1.086       .  S
C345        C346   1.442       .  A
C345        C349   1.445       .  S
C346        C347   1.424       .  A
C347        C348   1.430       .  A
C347        H360   1.075       .  S
C348        C350   1.442       .  S
C349        N353   1.158       .  T
C350        N354   1.157       .  T
C351        N356   1.157       .  T
C352        N355   1.157       .  T
C361        C362   1.401       .  A
C361        C366   1.392       .  A
C361        C375   1.444       .  S
C362        C367   1.468       .  S
C362        C363   1.396       .  A
C363        C364   1.396       .  A
C363        H382   1.085       .  S
C364        C365   1.434       .  A
C364        C376   1.450       .  S
C365        C366   1.416       .  A
C366        H381   1.083       .  S
C367        C368   1.392       .  A
C367        C372   1.398       .  A
C368        C369   1.388       .  A
C368        H383   1.087       .  S
C369        C370   1.428       .  A
C369        C373   1.437       .  S
C370        C371   1.425       .  A
C371        C372   1.399       .  A
C371        H384   1.082       .  S
C372        C374   1.443       .  S
C373        N377   1.154       .  T
C374        N378   1.157       .  T
C375        N380   1.157       .  T
C376        N379   1.158       .  T
C385        C386   1.401       .  A
C385        C390   1.402       .  A
C385        C399   1.445       .  S
C386        C391   1.525       .  S
C386        C387   1.417       .  A
C387        C388   1.434       .  A
C387        H406   1.084       .  S
C388        C389   1.428       .  A
C388        C400   1.443       .  S
C389        C390   1.429       .  A
C390        H405   1.072       .  S
C391        C392   1.419       .  A
C391        C396   1.411       .  A
C392        C393   1.434       .  A
C392        H407   1.083       .  S
C393        C394   1.422       .  A
C393        C397   1.440       .  S
C394        C395   1.418       .  A
C395        C396   1.398       .  A
C395        H408   1.082       .  S
C396        C398   1.447       .  S
C397        N401   1.157       .  T
C398        N402   1.158       .  T
C399        N404   1.157       .  T
C400        N403   1.157       .  T
C409        C410   1.411       .  A
C409        C414   1.396       .  A
C409        C423   1.445       .  S
C410        C415   1.494       .  S
C410        C411   1.405       .  A
C411        C412   1.406       .  A
C411        H430   1.085       .  S
C412        C413   1.424       .  A
C412        C424   1.443       .  S
C413        C414   1.412       .  A
C414        H429   1.081       .  S
C415        C416   1.401       .  A
C415        C420   1.410       .  A
C416        C417   1.403       .  A
C416        H431   1.085       .  S
C417        C418   1.428       .  A
C417        C421   1.445       .  S
C418        C419   1.416       .  A
C419        C420   1.398       .  A
C419        H432   1.083       .  S
C420        C422   1.445       .  S
C421        N425   1.158       .  T
C422        N426   1.157       .  T
C423        N428   1.157       .  T
C424        N427   1.158       .  T
C433        C434   1.418       .  A
C433        C438   1.385       .  A
C433        C447   1.447       .  S
C434        C439   1.510       .  S
C434        C435   1.411       .  A
C435        C436   1.417       .  A
C435        H454   1.083       .  S
C436        C437   1.430       .  A
C436        C448   1.443       .  S
C437        C438   1.416       .  A
C438        H453   1.082       .  S
C439        C440   1.399       .  A
C439        C444   1.415       .  A
C440        C441   1.402       .  A
C440        H455   1.085       .  S
C441        C442   1.434       .  A
C441        C445   1.444       .  S
C442        C443   1.413       .  A
C443        C444   1.408       .  A
C443        H456   1.082       .  S
C444        C446   1.441       .  S
C445        N449   1.158       .  T
C446        N450   1.157       .  T
C447        N452   1.157       .  T
C448        N451   1.157       .  T
C457        C458   1.411       .  A
C457        C462   1.413       .  A
C457        C471   1.443       .  S
C458        C463   1.513       .  S
C458        C459   1.401       .  A
C459        C460   1.415       .  A
C459        H478   1.084       .  S
C460        C461   1.434       .  A
C460        C472   1.443       .  S
C461        C462   1.420       .  A
C462        H477   1.078       .  S
C463        C464   1.415       .  A
C463        C468   1.405       .  A
C464        C465   1.428       .  A
C464        H479   1.084       .  S
C465        C466   1.422       .  A
C465        C469   1.439       .  S
C466        C467   1.423       .  A
C467        C468   1.398       .  A
C467        H480   1.080       .  S
C468        C470   1.447       .  S
C469        N473   1.157       .  T
C470        N474   1.158       .  T
C471        N476   1.157       .  T
C472        N475   1.157       .  T
C481        C482   1.411       .  A
C481        C486   1.395       .  A
C481        C495   1.446       .  S
C482        C487   1.491       .  S
C482        C483   1.399       .  A
C483        C484   1.401       .  A
C483        H502   1.085       .  S
C484        C485   1.431       .  A
C484        C496   1.444       .  S
C485        C486   1.419       .  A
C486        H501   1.085       .  S
C487        C488   1.393       .  A
C487        C492   1.398       .  A
C488        C489   1.406       .  A
C488        H503   1.087       .  S
C489        C490   1.446       .  A
C489        C493   1.437       .  S
C490        C491   1.425       .  A
C491        C492   1.392       .  A
C491        H504   1.076       .  S
C492        C494   1.448       .  S
C493        N497   1.157       .  T
C494        N498   1.157       .  T
C495        N500   1.157       .  T
C496        N499   1.158       .  T
C505        C506   1.411       .  A
C505        C510   1.397       .  A
C505        C519   1.446       .  S
C506        C511   1.488       .  S
C506        C507   1.400       .  A
C507        C508   1.399       .  A
C507        H526   1.085       .  S
C508        C509   1.431       .  A
C508        C520   1.445       .  S
C509        C510   1.414       .  A
C510        H525   1.070       .  S
C511        C512   1.402       .  A
C511        C516   1.406       .  A
C512        C513   1.395       .  A
C512        H527   1.085       .  S
C513        C514   1.426       .  A
C513        C517   1.444       .  S
C514        C515   1.417       .  A
C515        C516   1.398       .  A
C515        H528   1.084       .  S
C516        C518   1.444       .  S
C517        N521   1.158       .  T
C518        N522   1.157       .  T
C519        N524   1.158       .  T
C520        N523   1.157       .  T
C529        C530   1.409       .  A
C529        C534   1.394       .  A
C529        C543   1.446       .  S
C530        C535   1.502       .  S
C530        C531   1.409       .  A
C531        C532   1.412       .  A
C531        H550   1.085       .  S
C532        C533   1.423       .  A
C532        C544   1.439       .  S
C533        C534   1.425       .  A
C534        H549   1.083       .  S
C535        C536   1.402       .  A
C535        C540   1.410       .  A
C536        C537   1.404       .  A
C536        H551   1.085       .  S
C537        C538   1.434       .  A
C537        C541   1.446       .  S
C538        C539   1.418       .  A
C539        C540   1.402       .  A
C539        H552   1.078       .  S
C540        C542   1.444       .  S
C541        N545   1.157       .  T
C542        N546   1.157       .  T
C543        N548   1.157       .  T
C544        N547   1.157       .  T
C553        C554   1.403       .  A
C553        C558   1.409       .  A
C553        C567   1.441       .  S
C554        C559   1.492       .  S
C554        C555   1.395       .  A
C555        C556   1.395       .  A
C555        H574   1.077       .  S
C556        C557   1.433       .  A
C556        C568   1.448       .  S
C557        C558   1.420       .  A
C558        H573   1.076       .  S
C559        C560   1.401       .  A
C559        C564   1.405       .  A
C560        C561   1.406       .  A
C560        H575   1.085       .  S
C561        C562   1.426       .  A
C561        C565   1.445       .  S
C562        C563   1.419       .  A
C563        C564   1.404       .  A
C563        H576   1.082       .  S
C564        C566   1.442       .  S
C565        N569   1.157       .  T
C566        N570   1.157       .  T
C567        N572   1.157       .  T
C568        N571   1.158       .  T
C577        C578   1.404       .  A
C577        C582   1.395       .  A
C577        C591   1.447       .  S
C578        C583   1.495       .  S
C578        C579   1.392       .  A
C579        C580   1.402       .  A
C579        H598   1.087       .  S
C580        C581   1.443       .  A
C580        C592   1.440       .  S
C581        C582   1.429       .  A
C582        H597   1.076       .  S
C583        C584   1.399       .  A
C583        C588   1.416       .  A
C584        C585   1.402       .  A
C584        H599   1.085       .  S
C585        C586   1.431       .  A
C585        C589   1.441       .  S
C586        C587   1.412       .  A
C587        C588   1.396       .  A
C587        H600   1.082       .  S
C588        C590   1.446       .  S
C589        N593   1.157       .  T
C590        N594   1.157       .  T
C591        N596   1.157       .  T
C592        N595   1.159       .  T
C601        C602   1.402       .  A
C601        C606   1.393       .  A
C601        C615   1.445       .  S
C602        C607   1.487       .  S
C602        C603   1.401       .  A
C603        C604   1.412       .  A
C603        H622   1.084       .  S
C604        C605   1.437       .  A
C604        C616   1.446       .  S
C605        C606   1.417       .  A
C606        H621   1.075       .  S
C607        C608   1.398       .  A
C607        C612   1.403       .  A
C608        C609   1.411       .  A
C608        H623   1.084       .  S
C609        C610   1.431       .  A
C609        C613   1.438       .  S
C610        C611   1.424       .  A
C611        C612   1.395       .  A
C611        H624   1.085       .  S
C612        C614   1.445       .  S
C613        N617   1.156       .  T
C614        N618   1.157       .  T
C615        N620   1.157       .  T
C616        N619   1.158       .  T
C625        C626   1.405       .  A
C625        C630   1.401       .  A
C625        C639   1.443       .  S
C626        C631   1.486       .  S
C626        C627   1.401       .  A
C627        C628   1.396       .  A
C627        H646   1.086       .  S
C628        C629   1.425       .  A
C628        C640   1.441       .  S
C629        C630   1.423       .  A
C630        H645   1.083       .  S
C631        C632   1.400       .  A
C631        C636   1.407       .  A
C632        C633   1.398       .  A
C632        H647   1.083       .  S
C633        C634   1.425       .  A
C633        C637   1.444       .  S
C634        C635   1.414       .  A
C635        C636   1.399       .  A
C635        H648   1.082       .  S
C636        C638   1.443       .  S
C637        N641   1.157       .  T
C638        N642   1.157       .  T
C639        N644   1.157       .  T
C640        N643   1.156       .  T
C649        C650   1.409       .  A
C649        C654   1.404       .  A
C649        C663   1.443       .  S
C650        C655   1.496       .  S
C650        C651   1.399       .  A
C651        C652   1.405       .  A
C651        H670   1.085       .  S
C652        C653   1.432       .  A
C652        C664   1.444       .  S
C653        C654   1.414       .  A
C654        H669   1.078       .  S
C655        C656   1.391       .  A
C655        C660   1.410       .  A
C656        C657   1.389       .  A
C656        H671   1.081       .  S
C657        C658   1.437       .  A
C657        C661   1.446       .  S
C658        C659   1.423       .  A
C659        C660   1.416       .  A
C659        H672   1.076       .  S
C660        C662   1.443       .  S
C661        N665   1.156       .  T
C662        N666   1.157       .  T
C663        N668   1.157       .  T
C664        N667   1.158       .  T
C673        C674   1.409       .  A
C673        C678   1.388       .  A
C673        C687   1.446       .  S
C674        C679   1.483       .  S
C674        C675   1.401       .  A
C675        C676   1.401       .  A
C675        H694   1.085       .  S
C676        C677   1.429       .  A
C676        C688   1.445       .  S
C677        C678   1.413       .  A
C678        H693   1.077       .  S
C679        C680   1.398       .  A
C679        C684   1.409       .  A
C680        C681   1.396       .  A
C680        H695   1.085       .  S
C681        C682   1.430       .  A
C681        C685   1.446       .  S
C682        C683   1.411       .  A
C683        C684   1.393       .  A
C683        H696   1.081       .  S
C684        C686   1.444       .  S
C685        N689   1.158       .  T
C686        N690   1.157       .  T
C687        N692   1.157       .  T
C688        N691   1.157       .  T
C697        C698   1.407       .  A
C697        C702   1.398       .  A
C697        C711   1.444       .  S
C698        C703   1.487       .  S
C698        C699   1.398       .  A
C699        C700   1.399       .  A
C699        H718   1.084       .  S
C700        C701   1.430       .  A
C700        C712   1.444       .  S
C701        C702   1.414       .  A
C702        H717   1.078       .  S
C703        C704   1.400       .  A
C703        C708   1.406       .  A
C704        C705   1.394       .  A
C704        H719   1.086       .  S
C705        C706   1.427       .  A
C705        C709   1.442       .  S
C706        C707   1.422       .  A
C707        C708   1.403       .  A
C707        H720   1.082       .  S
C708        C710   1.444       .  S
C709        N713   1.156       .  T
C710        N714   1.157       .  T
C711        N716   1.157       .  T
C712        N715   1.158       .  T
C721        C722   1.416       .  A
C721        C726   1.426       .  A
C721        C735   1.440       .  S
C722        C727   1.513       .  S
C722        C723   1.396       .  A
C723        C724   1.395       .  A
C723        H742   1.087       .  S
C724        C725   1.435       .  A
C724        C736   1.447       .  S
C725        C726   1.417       .  A
C726        H741   1.082       .  S
C727        C728   1.417       .  A
C727        C732   1.407       .  A
C728        C729   1.432       .  A
C728        H743   1.083       .  S
C729        C730   1.420       .  A
C729        C733   1.439       .  S
C730        C731   1.422       .  A
C731        C732   1.389       .  A
C731        H744   1.082       .  S
C732        C734   1.449       .  S
C733        N737   1.157       .  T
C734        N738   1.158       .  T
C735        N740   1.157       .  T
C736        N739   1.158       .  T
C745        C746   1.405       .  A
C745        C750   1.405       .  A
C745        C759   1.444       .  S
C746        C751   1.486       .  S
C746        C747   1.396       .  A
C747        C748   1.396       .  A
C747        H766   1.086       .  S
C748        C749   1.431       .  A
C748        C760   1.442       .  S
C749        C750   1.422       .  A
C750        H765   1.082       .  S
C751        C752   1.399       .  A
C751        C756   1.408       .  A
C752        C753   1.399       .  A
C752        H767   1.085       .  S
C753        C754   1.424       .  A
C753        C757   1.443       .  S
C754        C755   1.416       .  A
C755        C756   1.400       .  A
C755        H768   1.082       .  S
C756        C758   1.443       .  S
C757        N761   1.157       .  T
C758        N762   1.157       .  T
C759        N764   1.157       .  T
C760        N763   1.156       .  T
C769        C770   1.417       .  A
C769        C774   1.420       .  A
C769        C783   1.442       .  S
C770        C775   1.513       .  S
C770        C771   1.400       .  A
C771        C772   1.411       .  A
C771        H790   1.084       .  S
C772        C773   1.429       .  A
C772        C784   1.441       .  S
C773        C774   1.414       .  A
C774        H789   1.083       .  S
C775        C776   1.391       .  A
C775        C780   1.419       .  A
C776        C777   1.397       .  A
C776        H791   1.083       .  S
C777        C778   1.438       .  A
C777        C781   1.446       .  S
C778        C779   1.415       .  A
C779        C780   1.428       .  A
C779        H792   1.083       .  S
C780        C782   1.440       .  S
C781        N785   1.158       .  T
C782        N786   1.157       .  T
C783        N788   1.157       .  T
C784        N787   1.157       .  T
C793        C794   1.417       .  A
C793        C798   1.428       .  A
C793        C807   1.441       .  S
C794        C799   1.512       .  S
C794        C795   1.391       .  A
C795        C796   1.395       .  A
C795        H814   1.087       .  S
C796        C797   1.442       .  A
C796        C808   1.445       .  S
C797        C798   1.418       .  A
C798        H813   1.080       .  S
C799        C800   1.414       .  A
C799        C804   1.405       .  A
C800        C801   1.429       .  A
C800        H815   1.084       .  S
C801        C802   1.425       .  A
C801        C805   1.439       .  S
C802        C803   1.425       .  A
C803        C804   1.395       .  A
C803        H816   1.080       .  S
C804        C806   1.449       .  S
C805        N809   1.157       .  T
C806        N810   1.157       .  T
C807        N812   1.157       .  T
C808        N811   1.158       .  T
C817        C818   1.406       .  A
C817        C822   1.388       .  A
C817        C831   1.446       .  S
C818        C823   1.480       .  S
C818        C819   1.398       .  A
C819        C820   1.402       .  A
C819        H838   1.085       .  S
C820        C821   1.427       .  A
C820        C832   1.441       .  S
C821        C822   1.414       .  A
C822        H837   1.070       .  S
C823        C824   1.395       .  A
C823        C828   1.408       .  A
C824        C825   1.395       .  A
C824        H839   1.086       .  S
C825        C826   1.432       .  A
C825        C829   1.446       .  S
C826        C827   1.415       .  A
C827        C828   1.395       .  A
C827        H840   1.080       .  S
C828        C830   1.445       .  S
C829        N833   1.157       .  T
C830        N834   1.157       .  T
C831        N836   1.157       .  T
C832        N835   1.157       .  T
C841        C842   1.426       .  A
C841        C846   1.422       .  A
C841        C855   1.442       .  S
C842        C847   1.525       .  S
C842        C843   1.395       .  A
C843        C844   1.401       .  A
C843        H862   1.084       .  S
C844        C845   1.444       .  A
C844        C856   1.445       .  S
C845        C846   1.413       .  A
C846        H861   1.084       .  S
C847        C848   1.394       .  A
C847        C852   1.424       .  A
C848        C849   1.400       .  A
C848        H863   1.083       .  S
C849        C850   1.443       .  A
C849        C853   1.444       .  S
C850        C851   1.415       .  A
C851        C852   1.423       .  A
C851        H864   1.084       .  S
C852        C854   1.443       .  S
C853        N857   1.158       .  T
C854        N858   1.157       .  T
C855        N860   1.157       .  T
C856        N859   1.158       .  T
C865        C866   1.401       .  A
C865        C870   1.386       .  A
C865        C879   1.446       .  S
C866        C871   1.463       .  S
C866        C867   1.395       .  A
C867        C868   1.396       .  A
C867        H886   1.085       .  S
C868        C869   1.432       .  A
C868        C880   1.444       .  S
C869        C870   1.416       .  A
C870        H885   1.075       .  S
C871        C872   1.396       .  A
C871        C876   1.404       .  A
C872        C873   1.395       .  A
C872        H887   1.085       .  S
C873        C874   1.430       .  A
C873        C877   1.446       .  S
C874        C875   1.411       .  A
C875        C876   1.382       .  A
C875        H888   1.084       .  S
C876        C878   1.444       .  S
C877        N881   1.158       .  T
C878        N882   1.156       .  T
C879        N884   1.157       .  T
C880        N883   1.157       .  T
C889        C890   1.412       .  A
C889        C894   1.429       .  A
C889        C903   1.440       .  S
C890        C895   1.518       .  S
C890        C891   1.389       .  A
C891        C892   1.401       .  A
C891        H910   1.088       .  S
C892        C893   1.451       .  A
C892        C904   1.442       .  S
C893        C894   1.425       .  A
C894        H909   1.083       .  S
C895        C896   1.417       .  A
C895        C900   1.411       .  A
C896        C897   1.432       .  A
C896        H911   1.083       .  S
C897        C898   1.423       .  A
C897        C901   1.440       .  S
C898        C899   1.416       .  A
C899        C900   1.392       .  A
C899        H912   1.080       .  S
C900        C902   1.447       .  S
C901        N905   1.157       .  T
C902        N906   1.157       .  T
C903        N908   1.157       .  T
C904        N907   1.158       .  T
C913        C914   1.411       .  A
C913        C918   1.401       .  A
C913        C927   1.444       .  S
C914        C919   1.482       .  S
C914        C915   1.399       .  A
C915        C916   1.384       .  A
C915        H934   1.081       .  S
C916        C917   1.423       .  A
C916        C928   1.443       .  S
C917        C918   1.411       .  A
C918        H933   1.084       .  S
C919        C920   1.397       .  A
C919        C924   1.412       .  A
C920        C921   1.390       .  A
C920        H935   1.082       .  S
C921        C922   1.426       .  A
C921        C925   1.445       .  S
C922        C923   1.411       .  A
C923        C924   1.396       .  A
C923        H936   1.080       .  S
C924        C926   1.446       .  S
C925        N929   1.157       .  T
C926        N930   1.157       .  T
C927        N932   1.157       .  T
C928        N931   1.156       .  T
C937        C938   1.409       .  A
C937        C942   1.405       .  A
C937        C951   1.444       .  S
C938        C943   1.494       .  S
C938        C939   1.396       .  A
C939        C940   1.407       .  A
C939        H958   1.085       .  S
C940        C941   1.436       .  A
C940        C952   1.439       .  S
C941        C942   1.415       .  A
C942        H957   1.083       .  S
C943        C944   1.401       .  A
C943        C948   1.406       .  A
C944        C945   1.408       .  A
C944        H959   1.084       .  S
C945        C946   1.425       .  A
C945        C949   1.438       .  S
C946        C947   1.423       .  A
C947        C948   1.397       .  A
C947        H960   1.083       .  S
C948        C950   1.443       .  S
C949        N953   1.157       .  T
C950        N954   1.158       .  T
C951        N956   1.157       .  T
C952        N955   1.157       .  T
C961        C962   1.409       .  A
C961        C966   1.394       .  A
C961        C975   1.447       .  S
C962        C967   1.519       .  S
C962        C963   1.414       .  A
C963        C964   1.430       .  A
C963        H982   1.084       .  S
C964        C965   1.430       .  A
C964        C976   1.442       .  S
C965        C966   1.415       .  A
C966        H981   1.084       .  S
C967        C968   1.393       .  A
C967        C972   1.418       .  A
C968        C969   1.391       .  A
C968        H983   1.087       .  S
C969        C970   1.439       .  A
C969        C973   1.447       .  S
C970        C971   1.420       .  A
C971        C972   1.432       .  A
C971        H984   1.081       .  S
C972        C974   1.440       .  S
C973        N977   1.158       .  T
C974        N978   1.157       .  T
C975        N980   1.157       .  T
C976        N979   1.158       .  T
C985        C986   1.411       .  A
C985        C990   1.405       .  A
C985        C999   1.444       .  S
C986        C991   1.495       .  S
C986        C987   1.397       .  A
C987        C988   1.398       .  A
C987       H1006   1.084       .  S
C988        C989   1.430       .  A
C988       C1000   1.444       .  S
C989        C990   1.414       .  A
C990       H1005   1.080       .  S
C991        C992   1.398       .  A
C991        C996   1.408       .  A
C992        C993   1.395       .  A
C992       H1007   1.081       .  S
C993        C994   1.431       .  A
C993        C997   1.445       .  S
C994        C995   1.422       .  A
C995        C996   1.405       .  A
C995       H1008   1.081       .  S
C996        C998   1.444       .  S
C997       N1001   1.157       .  T
C998       N1002   1.157       .  T
C999       N1004   1.157       .  T
C1000      N1003   1.157       .  T
C1009      C1010   1.414       .  A
C1009      C1014   1.423       .  A
C1009      C1023   1.441       .  S
C1010      C1015   1.507       .  S
C1010      C1011   1.392       .  A
C1011      C1012   1.401       .  A
C1011      H1030   1.086       .  S
C1012      C1013   1.439       .  A
C1012      C1024   1.445       .  S
C1013      C1014   1.417       .  A
C1014      H1029   1.081       .  S
C1015      C1016   1.403       .  A
C1015      C1020   1.410       .  A
C1016      C1017   1.414       .  A
C1016      H1031   1.084       .  S
C1017      C1018   1.435       .  A
C1017      C1021   1.445       .  S
C1018      C1019   1.406       .  A
C1019      C1020   1.414       .  A
C1019      H1032   1.070       .  S
C1020      C1022   1.441       .  S
C1021      N1025   1.158       .  T
C1022      N1026   1.157       .  T
C1023      N1028   1.157       .  T
C1024      N1027   1.158       .  T
C1033      C1034   1.420       .  A
C1033      C1038   1.390       .  A
C1033      C1047   1.447       .  S
C1034      C1039   1.504       .  S
C1034      C1035   1.405       .  A
C1035      C1036   1.403       .  A
C1035      H1054   1.082       .  S
C1036      C1037   1.429       .  A
C1036      C1048   1.445       .  S
C1037      C1038   1.410       .  A
C1038      H1053   1.084       .  S
C1039      C1040   1.401       .  A
C1039      C1044   1.417       .  A
C1040      C1041   1.393       .  A
C1040      H1055   1.085       .  S
C1041      C1042   1.422       .  A
C1041      C1045   1.441       .  S
C1042      C1043   1.418       .  A
C1043      C1044   1.402       .  A
C1043      H1056   1.085       .  S
C1044      C1046   1.444       .  S
C1045      N1049   1.156       .  T
C1046      N1050   1.158       .  T
C1047      N1052   1.157       .  T
C1048      N1051   1.158       .  T
C1057      C1058   1.418       .  A
C1057      C1062   1.415       .  A
C1057      C1071   1.442       .  S
C1058      C1063   1.517       .  S
C1058      C1059   1.410       .  A
C1059      C1060   1.394       .  A
C1059      H1078   1.082       .  S
C1060      C1061   1.418       .  A
C1060      C1072   1.445       .  S
C1061      C1062   1.418       .  A
C1062      H1077   1.078       .  S
C1063      C1064   1.406       .  A
C1063      C1068   1.421       .  A
C1064      C1065   1.403       .  A
C1064      H1079   1.085       .  S
C1065      C1066   1.425       .  A
C1065      C1069   1.439       .  S
C1066      C1067   1.416       .  A
C1067      C1068   1.409       .  A
C1067      H1080   1.082       .  S
C1068      C1070   1.442       .  S
C1069      N1073   1.157       .  T
C1070      N1074   1.158       .  T
C1071      N1076   1.157       .  T
C1072      N1075   1.157       .  T
C1081      C1082   1.408       .  A
C1081      C1086   1.409       .  A
C1081      C1095   1.445       .  S
C1082      C1087   1.530       .  S
C1082      C1083   1.415       .  A
C1083      C1084   1.432       .  A
C1083      H1102   1.084       .  S
C1084      C1085   1.429       .  A
C1084      C1096   1.442       .  S
C1085      C1086   1.429       .  A
C1086      H1101   1.079       .  S
C1087      C1088   1.422       .  A
C1087      C1092   1.408       .  A
C1088      C1089   1.438       .  A
C1088      H1103   1.083       .  S
C1089      C1090   1.423       .  A
C1089      C1093   1.439       .  S
C1090      C1091   1.419       .  A
C1091      C1092   1.397       .  A
C1091      H1104   1.082       .  S
C1092      C1094   1.442       .  S
C1093      N1097   1.157       .  T
C1094      N1098   1.156       .  T
C1095      N1100   1.157       .  T
C1096      N1099   1.157       .  T
C1105      C1106   1.405       .  A
C1105      C1110   1.398       .  A
C1105      C1119   1.446       .  S
C1106      C1111   1.485       .  S
C1106      C1107   1.397       .  A
C1107      C1108   1.405       .  A
C1107      H1126   1.085       .  S
C1108      C1109   1.435       .  A
C1108      C1120   1.443       .  S
C1109      C1110   1.420       .  A
C1110      H1125   1.085       .  S
C1111      C1112   1.404       .  A
C1111      C1116   1.403       .  A
C1112      C1113   1.409       .  A
C1112      H1127   1.084       .  S
C1113      C1114   1.423       .  A
C1113      C1117   1.443       .  S
C1114      C1115   1.418       .  A
C1115      C1116   1.392       .  A
C1115      H1128   1.080       .  S
C1116      C1118   1.445       .  S
C1117      N1121   1.157       .  T
C1118      N1122   1.157       .  T
C1119      N1124   1.157       .  T
C1120      N1123   1.158       .  T
C1129      C1130   1.420       .  A
C1129      C1134   1.432       .  A
C1129      C1143   1.441       .  S
C1130      C1135   1.521       .  S
C1130      C1131   1.391       .  A
C1131      C1132   1.402       .  A
C1131      H1150   1.086       .  S
C1132      C1133   1.441       .  A
C1132      C1144   1.444       .  S
C1133      C1134   1.419       .  A
C1134      H1149   1.083       .  S
C1135      C1136   1.415       .  A
C1135      C1140   1.405       .  A
C1136      C1137   1.429       .  A
C1136      H1151   1.084       .  S
C1137      C1138   1.425       .  A
C1137      C1141   1.442       .  S
C1138      C1139   1.429       .  A
C1139      C1140   1.408       .  A
C1139      H1152   1.080       .  S
C1140      C1142   1.445       .  S
C1141      N1145   1.157       .  T
C1142      N1146   1.157       .  T
C1143      N1148   1.157       .  T
C1144      N1147   1.158       .  T
C1153      C1154   1.403       .  A
C1153      C1158   1.394       .  A
C1153      C1167   1.446       .  S
C1154      C1159   1.484       .  S
C1154      C1155   1.403       .  A
C1155      C1156   1.406       .  A
C1155      H1174   1.085       .  S
C1156      C1157   1.423       .  A
C1156      C1168   1.443       .  S
C1157      C1158   1.420       .  A
C1158      H1173   1.080       .  S
C1159      C1160   1.392       .  A
C1159      C1164   1.403       .  A
C1160      C1161   1.391       .  A
C1160      H1175   1.086       .  S
C1161      C1162   1.437       .  A
C1161      C1165   1.443       .  S
C1162      C1163   1.422       .  A
C1163      C1164   1.408       .  A
C1163      H1176   1.075       .  S
C1164      C1166   1.442       .  S
C1165      N1169   1.156       .  T
C1166      N1170   1.157       .  T
C1167      N1172   1.157       .  T
C1168      N1171   1.157       .  T
C1177      C1178   1.401       .  A
C1177      C1182   1.404       .  A
C1177      C1191   1.442       .  S
C1178      C1183   1.472       .  S
C1178      C1179   1.391       .  A
C1179      C1180   1.385       .  A
C1179      H1198   1.087       .  S
C1180      C1181   1.435       .  A
C1180      C1192   1.444       .  S
C1181      C1182   1.421       .  A
C1182      H1197   1.080       .  S
C1183      C1184   1.395       .  A
C1183      C1188   1.404       .  A
C1184      C1185   1.399       .  A
C1184      H1199   1.085       .  S
C1185      C1186   1.429       .  A
C1185      C1189   1.445       .  S
C1186      C1187   1.414       .  A
C1187      C1188   1.394       .  A
C1187      H1200   1.082       .  S
C1188      C1190   1.443       .  S
C1189      N1193   1.157       .  T
C1190      N1194   1.157       .  T
C1191      N1196   1.157       .  T
C1192      N1195   1.157       .  T
