geometry optimzed in LAMMPS
_audit_creation_date              2020-11-30 
_audit_creation_method            'lammps2cif' 
_symmetry_space_group_name_H-M    'P1' 
_symmetry_Int_Tables_number       1 
_symmetry_cell_setting            triclinic 
loop_ 
_symmetry_equiv_pos_as_xyz 
  x,y,z 
_cell_length_a                    44.56352224 
_cell_length_b                    25.371403498854296 
_cell_length_c                    44.65163159761045 
_cell_angle_alpha                 90.06621697518315 
_cell_angle_beta                  90.04278777549456 
_cell_angle_gamma                 90.05518645458454 
loop_ 
_atom_site_label 
_atom_site_type_symbol 
_atom_site_fract_x 
_atom_site_fract_y 
_atom_site_fract_z 
_atom_site_charge 
C1          C  0.06105010  0.89736616  0.07231884     0.43800
N2          N  0.04982638  0.95546178  0.03950672     0.02700
C3          C  0.41865769  0.10074598  0.03074300    -0.05200
H4          H  0.40425950  0.89874267  0.02034012     0.08200
C5          C  0.46560956  0.90366951  0.42594802    -0.05600
Co6        Co  0.49290862  0.01139610  0.05461915     0.74200
N7          N  0.44173120  0.94942187  0.03001988    -0.24700
Co8        Co  0.44290944  0.00455987  0.49543567     0.74100
C9          C  0.43760616  0.87881137  0.43559081     0.43900
N10         N  0.03574580  0.94660167  0.45046508     0.02300
N11         N  0.44688615  0.94509689  0.46386532     0.02400
N12         N  0.45127917  0.10369427  0.06952094    -0.45600
H13         H  0.01799609  0.91376235  0.09928018     0.08100
N14         N  0.46082672  0.95193427  0.05255380     0.02700
N15         N  0.44562421  0.05971625  0.46091911     0.02400
C16         C  0.43535472  0.12100416  0.42952571     0.44000
N17         N  0.05507981  0.94935703  0.47283324    -0.24200
C18         C  0.02874244  0.11134621  0.07364180    -0.05100
N19         N  0.07086577  0.92129865  0.04720558    -0.45300
N20         N  0.42513620  0.09542781  0.45398106    -0.45500
C21         C  0.05665845  0.13662923  0.06411662     0.43800
N22         N  0.45869994  0.06666310  0.04997561     0.02700
N23         N  0.05404002  0.06326768  0.46984249    -0.24200
N24         N  0.02713218  0.95620745  0.05845220    -0.24700
N25         N  0.03503158  0.06092165  0.44723642     0.03700
H26         H  0.09347788  0.11001551  0.47835819     0.08200
H27         H  0.47840315  0.10497991  0.40244974     0.08200
N28         N  0.43979920  0.06383742  0.02732165    -0.24800
N29         N  0.46939905  0.94437003  0.44475433    -0.24400
N30         N  0.04794264  0.06978003  0.03596276     0.02700
C31         C  0.43254346  0.88604656  0.06319070     0.44100
C32         C  0.07581432  0.91167031  0.46915299    -0.05600
N33         N  0.46840191  0.05936869  0.44203400    -0.24400
H34         H  0.47997131  0.89440807  0.40716440     0.08200
N35         N  0.45599923  0.91511364  0.07295027    -0.45600
H36         H  0.09508730  0.90539149  0.48343751     0.08200
C37         C  0.06576505  0.12218696  0.43527252     0.43900
C38         C  0.03206466  0.92039244  0.07991803    -0.05100
Co39       Co  0.05232296  0.00943016  0.00464712     0.73800
N40         N  0.04220143  0.90868878  0.43116303    -0.45300
C41         C  0.42620402  0.12710974  0.05891053     0.44200
N42         N  0.06734722  0.10831822  0.04083447    -0.45300
Co43       Co  0.00218852  0.00281720  0.44549797     0.73900
C44         C  0.46405834  0.09714654  0.42146204    -0.05600
C45         C  0.42289234  0.90906719  0.03469830    -0.05200
N46         N  0.02529467  0.07045361  0.05496592    -0.24700
N47         N  0.42722468  0.90699740  0.45900017    -0.45500
H48         H  0.39984704  0.10645996  0.01582468     0.08200
C49         C  0.07428513  0.10103097  0.46442315    -0.05600
Cl50       Cl  0.99759743  0.00707537  0.00004705    -0.48600
C51         C  0.06709593  0.88466522  0.44152403     0.43900
H52         H  0.01423780  0.12021526  0.09236356     0.08100
N53         N  0.04143358  0.09515395  0.42585286    -0.45300
C54         C  0.31176286  0.62874950  0.18565347     0.43800
N55         N  0.30008782  0.56400347  0.21421647     0.02700
C56         C  0.16945242  0.41683763  0.21421351    -0.05200
H57         H  0.15229935  0.61481316  0.23227127     0.08200
C58         C  0.21541576  0.60041577  0.32781597    -0.05600
Co59       Co  0.24311722  0.51175277  0.19518274     0.74200
N60         N  0.19144851  0.56904024  0.22181702    -0.24700
Co61       Co  0.19238752  0.50969695  0.25382153     0.74100
C62         C  0.18758124  0.62708118  0.31935373     0.43900
N63         N  0.28563666  0.55840586  0.30283556     0.02300
N64         N  0.19651584  0.56500049  0.28800925     0.02400
N65         N  0.20241411  0.42086189  0.17572341    -0.45600
H66         H  0.26899912  0.61714158  0.15713854     0.08100
N67         N  0.21088504  0.57034875  0.19959428     0.02700
N68         N  0.19433961  0.45038235  0.28591417     0.02400
C69         C  0.18299641  0.38762394  0.31597300     0.44000
N70         N  0.30506964  0.55853497  0.28057980    -0.24200
C71         C  0.27858248  0.41600304  0.17063585    -0.05100
N72         N  0.32114309  0.59971623  0.20918000    -0.45300
N73         N  0.17341196  0.41477177  0.29175879    -0.45500
C74         C  0.30575811  0.38786096  0.17913832     0.43800
N75         N  0.20890049  0.45585870  0.19675385     0.02700
N76         N  0.30243467  0.44405771  0.27769602    -0.24200
N77         N  0.27760780  0.56711936  0.19506025    -0.24700
N78         N  0.28323301  0.44373534  0.30015418     0.02300
H79         H  0.34082372  0.39642741  0.26692338     0.08200
H80         H  0.22575182  0.40235514  0.34414288     0.08200
N81         N  0.18980564  0.45469772  0.21932197    -0.24800
N82         N  0.21898354  0.56255604  0.30721713    -0.24400
N83         N  0.29750317  0.44906679  0.21116447     0.02700
C84         C  0.18088626  0.63444109  0.19058443     0.44100
C85         C  0.32608222  0.59508687  0.28619549    -0.05600
N86         N  0.21679987  0.44867823  0.30509926    -0.24400
H87         H  0.23012269  0.60715924  0.34669942     0.08200
N88         N  0.20520387  0.60847759  0.18021358    -0.45600
H89         H  0.34564698  0.60247236  0.27252037     0.08200
C90         C  0.31247436  0.37819306  0.30896015     0.43900
C91         C  0.28287501  0.60698744  0.17614122    -0.05100
Co92       Co  0.30191602  0.50382719  0.24581816     0.73800
N93         N  0.29241752  0.59282271  0.32406980    -0.45300
C94         C  0.17796793  0.39441127  0.18532001     0.44200
N95         N  0.31641659  0.41060607  0.20437125    -0.45300
Co96       Co  0.25122799  0.50335184  0.30439136     0.73900
C97         C  0.21171196  0.41045276  0.32496590    -0.05600
C98         C  0.17161799  0.60807531  0.21816712    -0.05200
N99         N  0.27526645  0.45296698  0.19177131    -0.24700
N100        N  0.17714511  0.60282526  0.29451784    -0.45500
H101        H  0.15028556  0.40820002  0.22821790     0.08200
C102        C  0.32173465  0.40408596  0.28119158    -0.05600
Cl103      Cl  0.24716726  0.50715440  0.24980540    -0.48600
C104        C  0.31753931  0.61789483  0.31507278     0.43900
H105        H  0.26407869  0.41039225  0.15146389     0.08100
N106        N  0.28863370  0.40539386  0.31952690    -0.45300
C107        C  0.12653358  0.28215737  0.16331306     0.14000
C108        C  0.12561524  0.28773978  0.13203942     0.00900
C109        C  0.14244767  0.32774745  0.11830915     0.15900
C110        C  0.15992972  0.36189471  0.13561624     0.25300
C111        C  0.16058736  0.35683821  0.16699573    -0.41000
C112        C  0.14385653  0.31651065  0.18069132     0.32400
C113        C  0.10764958  0.25102526  0.11366977     0.01000
F114        F  0.14145590  0.33432741  0.08814527    -0.13300
F115        F  0.14490207  0.30939462  0.21080252    -0.13800
C116        C  0.07638874  0.24828797  0.11714429     0.15900
C117        C  0.05955963  0.21228107  0.10036640     0.25300
C118        C  0.07384387  0.17794629  0.08007311    -0.40900
C119        C  0.10513931  0.18193581  0.07609657     0.32300
C120        C  0.12184309  0.21809075  0.09280254     0.14000
F121        F  0.06215674  0.28078954  0.13669019    -0.13300
F122        F  0.11987922  0.14964874  0.05682345    -0.13800
F123        F  0.02930932  0.21167422  0.10379693    -0.16100
F124        F  0.15210261  0.21974661  0.08934271    -0.14700
F125        F  0.11111482  0.24270916  0.17692730    -0.14700
F126        F  0.17543185  0.40091522  0.12171214    -0.16100
C127        C  0.16291096  0.27654878  0.36884282     0.14000
C128        C  0.13190658  0.27180978  0.36417961     0.00900
C129        C  0.11782453  0.30387251  0.34275359     0.15900
C130        C  0.13449068  0.34094473  0.32663209     0.25300
C131        C  0.16551536  0.34675951  0.33188503    -0.41000
C132        C  0.17954727  0.31370634  0.35300256     0.32400
C133        C  0.11437330  0.23408027  0.38223842     0.01000
F134        F  0.08777145  0.30036205  0.33808100    -0.13300
F135        F  0.20949193  0.31635775  0.35820238    -0.13800
C136        C  0.11527660  0.23687513  0.41365694     0.15900
C137        C  0.09958105  0.20035010  0.43094303     0.25300
C138        C  0.08232538  0.16084969  0.41707205    -0.40900
C139        C  0.08126014  0.15827655  0.38559597     0.32300
C140        C  0.09728089  0.19450220  0.36832147     0.14000
F141        F  0.13109720  0.27553833  0.42762099    -0.13300
F142        F  0.06555543  0.11963811  0.37149579    -0.13800
F143        F  0.10075522  0.20456005  0.46122817    -0.16100
F144        F  0.09678336  0.19003922  0.33801507    -0.14700
F145        F  0.17721559  0.24466318  0.38864928    -0.14700
F146        F  0.12002598  0.37202778  0.30654469    -0.16100
C147        C  0.15281050  0.71988703  0.12692548     0.14000
C148        C  0.13150110  0.75140824  0.14154947     0.00900
C149        C  0.12718746  0.74576144  0.17248747     0.15900
C150        C  0.14362853  0.70850199  0.18859880     0.25300
C151        C  0.16459334  0.67592526  0.17394380    -0.41000
C152        C  0.16924603  0.68245798  0.14294294     0.32400
C153        C  0.11340368  0.78957297  0.12440861     0.01000
F154        F  0.10720367  0.77681707  0.18715708    -0.13300
F155        F  0.18900600  0.65161604  0.12783643    -0.13800
C156        C  0.08206150  0.78412478  0.12299466     0.15900
C157        C  0.06492719  0.81957652  0.10626624     0.25300
C158        C  0.07896663  0.86059421  0.09045356    -0.40900
C159        C  0.11032163  0.86633158  0.09214344     0.32300
C160        C  0.12739714  0.83114662  0.10909489     0.14000
F161        F  0.06816299  0.74361447  0.13721367    -0.13300
F162        F  0.12436409  0.90685255  0.07807556    -0.13800
F163        F  0.03474930  0.81270036  0.10471673    -0.16100
F164        F  0.15756531  0.83804972  0.11095471    -0.14700
F165        F  0.15704908  0.72432183  0.09691476    -0.14700
F166        F  0.13925791  0.70515614  0.21859711    -0.16100
C167        C  0.35954541  0.20555507  0.08760710     0.14000
C168        C  0.37276858  0.23532340  0.11061241     0.00900
C169        C  0.40357265  0.22961522  0.11643335     0.15900
C170        C  0.42091414  0.19469367  0.09948666     0.25300
C171        C  0.40779159  0.16504689  0.07621275    -0.41000
C172        C  0.37682237  0.17079713  0.07054317     0.32400
C173        C  0.35457528  0.27309302  0.12815225     0.01000
F174        F  0.41700268  0.25872493  0.13818885    -0.13300
F175        F  0.36277508  0.14167911  0.04924722    -0.13800
C176        C  0.35281276  0.26891717  0.15949990     0.15900
C177        C  0.33677210  0.30621849  0.17610536     0.25300
C178        C  0.32185414  0.34767980  0.16156296    -0.40900
C179        C  0.32304243  0.35114350  0.13014705     0.32300
C180        C  0.33939513  0.31428962  0.11360632     0.14000
F181        F  0.36637119  0.22835425  0.17396522    -0.13300
F182        F  0.30954943  0.39154096  0.11548053    -0.13800
F183        F  0.33533016  0.30130235  0.20634918    -0.16100
F184        F  0.34122072  0.31981568  0.08341182    -0.14700
F185        F  0.32965285  0.20930805  0.08206870    -0.14700
F186        F  0.45065749  0.19048109  0.10565828    -0.16100
C187        C  0.41830713  0.76192053  0.38632664     0.14000
C188        C  0.38683297  0.76137327  0.38819986     0.00900
C189        C  0.37230332  0.79775125  0.40692214     0.15900
C190        C  0.38890926  0.83509045  0.42289301     0.25300
C191        C  0.42039481  0.83695852  0.42023140    -0.41000
C192        C  0.43497453  0.79945957  0.40215640     0.32400
C193        C  0.36908590  0.72444626  0.36963383     0.01000
F194        F  0.34189363  0.79848696  0.40881825    -0.13300
F195        F  0.46534938  0.79857508  0.40003719    -0.13800
C196        C  0.34911605  0.68866162  0.38297344     0.15900
C197        C  0.33200658  0.65454325  0.36521840     0.25300
C198        C  0.33484118  0.65528065  0.33377741    -0.40900
C199        C  0.35467070  0.69153812  0.32050927     0.32300
C200        C  0.37156887  0.72585903  0.33829137     0.14000
F201        F  0.34660020  0.68611408  0.41324955    -0.13300
F202        F  0.35713000  0.69499723  0.29028766    -0.13800
F203        F  0.31324856  0.61994524  0.37891436    -0.16100
F204        F  0.38990404  0.76146196  0.32485729    -0.14700
F205        F  0.43289159  0.72594111  0.36915632    -0.14700
F206        F  0.37396663  0.87076979  0.43996059    -0.16100
C207        C  0.34265458  0.29716727  0.37374535     0.14000
C208        C  0.36409066  0.26549785  0.35941627     0.00900
C209        C  0.36744993  0.26886538  0.32823856     0.15900
C210        C  0.35002606  0.30424245  0.31163144     0.25300
C211        C  0.32915871  0.33744345  0.32603545    -0.41000
C212        C  0.32531076  0.33277544  0.35726368     0.32400
C213        C  0.38259367  0.22839237  0.37704671     0.01000
F214        F  0.38736894  0.23730363  0.31383732    -0.13300
F215        F  0.30539056  0.36366688  0.37211462    -0.13800
C216        C  0.36909183  0.18503278  0.39112941     0.15900
C217        C  0.38628905  0.15038903  0.40835863     0.25300
C218        C  0.41737108  0.15828376  0.41158219    -0.40900
C219        C  0.43096607  0.20151740  0.39729122     0.32300
C220        C  0.41364238  0.23649824  0.38024217     0.14000
F221        F  0.33926072  0.17583212  0.38775916    -0.13300
F222        F  0.46079895  0.21079906  0.40059345    -0.13800
F223        F  0.37266995  0.10815350  0.42114504    -0.16100
F224        F  0.42699847  0.27893181  0.36737923    -0.14700
F225        F  0.33904869  0.29445166  0.40389887    -0.14700
F226        F  0.35329462  0.30514119  0.28142689    -0.16100
C227        C  0.13262122  0.81427556  0.40557225     0.14000
C228        C  0.11790190  0.77623516  0.38800974     0.00900
C229        C  0.08640204  0.77382588  0.38826277     0.15900
C230        C  0.06989002  0.80890960  0.40594066     0.25300
C231        C  0.08465913  0.84646570  0.42387554    -0.41000
C232        C  0.11617971  0.84894296  0.42347346     0.32400
C233        C  0.13562200  0.73823681  0.37020566     0.01000
F234        F  0.07168924  0.73679780  0.37188184    -0.13300
F235        F  0.13112321  0.88626443  0.43939208    -0.13800
C236        C  0.15622618  0.70501087  0.38460967     0.15900
C237        C  0.17346524  0.66945530  0.36811640     0.25300
C238        C  0.17032059  0.66625972  0.33678934    -0.40900
C239        C  0.14948776  0.69937521  0.32236913     0.32300
C240        C  0.13232596  0.73518217  0.33895841     0.14000
F241        F  0.15911254  0.70612161  0.41488397    -0.13300
F242        F  0.14603161  0.69765792  0.29216089    -0.13800
F243        F  0.19228122  0.63682429  0.38313140    -0.16100
F244        F  0.11285601  0.76748829  0.32448400    -0.14700
F245        F  0.16299531  0.81848411  0.40489181    -0.14700
F246        F  0.03947194  0.80554184  0.40598269    -0.16100
C247        C  0.38007809  0.69865015  0.15434670     0.14000
C248        C  0.36685722  0.73513648  0.13469722     0.00900
C249        C  0.33539500  0.73831856  0.13315282     0.15900
C250        C  0.31746148  0.70459904  0.15020709     0.25300
C251        C  0.33063691  0.66717453  0.16934024    -0.41000
C252        C  0.36215114  0.66534518  0.17173936     0.32400
C253        C  0.38562772  0.77044320  0.11600937     0.01000
F254        F  0.32196801  0.77471281  0.11535645    -0.13300
F255        F  0.37576424  0.63013243  0.19014572    -0.13800
C256        C  0.38121417  0.77280007  0.08486390     0.15900
C257        C  0.39694580  0.80935100  0.06749126     0.25300
C258        C  0.41760948  0.84416282  0.08092639    -0.40900
C259        C  0.42317991  0.83969783  0.11191224     0.32300
C260        C  0.40719013  0.80348001  0.12927670     0.14000
F261        F  0.36156297  0.73959280  0.07121795    -0.13300
F262        F  0.44329988  0.87169206  0.12578675    -0.13800
F263        F  0.39199296  0.81009499  0.03751642    -0.16100
F264        F  0.41190016  0.80232028  0.15931708    -0.14700
F265        F  0.41038991  0.69410829  0.15605409    -0.14700
F266        F  0.28719050  0.70942653  0.14834769    -0.16100
C267        C  0.06105608  0.89736720  0.57231599     0.43800
N268        N  0.04982951  0.95546483  0.53950598     0.02700
C269        C  0.41865685  0.10074533  0.53073816    -0.05200
H270        H  0.40425552  0.89874781  0.52034514     0.08200
C271        C  0.46560721  0.90366961  0.92594983    -0.05600
Co272      Co  0.49290814  0.01139918  0.55461696     0.74200
N273        N  0.44173104  0.94942301  0.53001919    -0.24700
Co274      Co  0.44290920  0.00456114  0.99543788     0.74100
C275        C  0.43760312  0.87881327  0.93559229     0.43900
N276        N  0.03574561  0.94659647  0.95046447     0.02300
N277        N  0.44688428  0.94509867  0.96386677     0.02400
N278        N  0.45127826  0.10369740  0.56951621    -0.45600
H279        H  0.01800153  0.91375531  0.59927832     0.08100
N280        N  0.46082632  0.95193850  0.55255324     0.02700
N281        N  0.44562471  0.05971823  0.96092170     0.02400
C282        C  0.43535592  0.12100577  0.92952790     0.44000
N283        N  0.05507947  0.94935012  0.97283288    -0.24200
C284        C  0.02874180  0.11134139  0.57364624    -0.05100
N285        N  0.07087042  0.92130346  0.54720337    -0.45300
N286        N  0.42513717  0.09543057  0.95398355    -0.45500
C287        C  0.05665620  0.13662982  0.56412007     0.43800
N288        N  0.45869932  0.06666497  0.54997192     0.02700
N289        N  0.05404214  0.06326111  0.96984165    -0.24200
N290        N  0.02713540  0.95620537  0.55845157    -0.24700
N291        N  0.03503348  0.06091684  0.94723573     0.03700
H292        H  0.09348004  0.11000772  0.97835831     0.08200
H293        H  0.47840363  0.10497856  0.90245137     0.08200
N294        N  0.43979864  0.06383711  0.52731807    -0.24800
N295        N  0.46939739  0.94437006  0.94475609    -0.24400
N296        N  0.04794103  0.06978282  0.53596412     0.02700
C297        C  0.43253918  0.88606041  0.56319624     0.44100
C298        C  0.07581434  0.91166406  0.96915109    -0.05600
N299        N  0.46840215  0.05936886  0.94203616    -0.24400
H300        H  0.47996898  0.89440714  0.90716638     0.08200
N301        N  0.45599628  0.91512569  0.57295354    -0.45600
H302        H  0.09508806  0.90538520  0.98343482     0.08200
C303        C  0.06576718  0.12218265  0.93527277     0.43900
C304        C  0.03206972  0.92038907  0.57991618    -0.05100
Co305      Co  0.05232284  0.00943550  0.50464746     0.73800
N306        N  0.04220162  0.90868577  0.93116111    -0.45300
C307        C  0.42620306  0.12711131  0.55890493     0.44200
N308        N  0.06734415  0.10832307  0.54083589    -0.45300
Co309      Co  0.00218945  0.00281398  0.94549699     0.73900
C310        C  0.46405896  0.09714642  0.92146402    -0.05600
C311        C  0.42288989  0.90907267  0.53470114    -0.05200
N312        N  0.02529431  0.07045106  0.55496872    -0.24700
N313        N  0.42722200  0.90700039  0.95900142    -0.45500
H314        H  0.39984656  0.10645761  0.51581939     0.08200
C315        C  0.07428756  0.10102409  0.96442281    -0.05600
Cl316      Cl  0.99759747  0.00707587  0.50004826    -0.48600
C317        C  0.06709630  0.88466132  0.94152100     0.43900
H318        H  0.01423765  0.12020507  0.59236897     0.08100
N319        N  0.04143533  0.09515071  0.92585298    -0.45300
C320        C  0.31176675  0.62874628  0.68565131     0.43800
N321        N  0.30009133  0.56400190  0.71421496     0.02700
C322        C  0.16945978  0.41682732  0.71420966    -0.05200
H323        H  0.15229931  0.61480150  0.73226592     0.08200
C324        C  0.21541623  0.60040899  0.82781306    -0.05600
Co325      Co  0.24312136  0.51175044  0.69518036     0.74200
N326        N  0.19145096  0.56903317  0.72181388    -0.24700
Co327      Co  0.19239075  0.50968916  0.75381821     0.74100
C328        C  0.18758159  0.62707365  0.81935018     0.43900
N329        N  0.28563830  0.55840272  0.80283359     0.02300
N330        N  0.19651727  0.56499234  0.78800631     0.02400
N331        N  0.20242059  0.42085880  0.67571885    -0.45600
H332        H  0.26900324  0.61713765  0.65713606     0.08100
N333        N  0.21088832  0.57034379  0.69959189     0.02700
N334        N  0.19434312  0.45037407  0.78591068     0.02400
C335        C  0.18299927  0.38761643  0.81596981     0.44000
N336        N  0.30507172  0.55853302  0.78057821    -0.24200
C337        C  0.27858793  0.41600650  0.67063176    -0.05100
N338        N  0.32114690  0.59971397  0.70917819    -0.45300
N339        N  0.17341519  0.41476399  0.79175540    -0.45500
C340        C  0.30576409  0.38786609  0.67913331     0.43800
N341        N  0.20890577  0.45585485  0.69675004     0.02700
N342        N  0.30243872  0.44405540  0.77769367    -0.24200
N343        N  0.27761134  0.56711764  0.69505869    -0.24700
N344        N  0.28323675  0.44373206  0.80015160     0.02300
H345        H  0.34082912  0.39642681  0.76692190     0.08200
H346        H  0.22575404  0.40234726  0.84414032     0.08200
N347        N  0.18981113  0.45469034  0.71931833    -0.24800
N348        N  0.21898472  0.56254889  0.80721452    -0.24400
N349        N  0.29750772  0.44906657  0.71116185     0.02700
C350        C  0.18088739  0.63443187  0.69058018     0.44100
C351        C  0.32608318  0.59508700  0.78619398    -0.05600
N352        N  0.21680317  0.44867031  0.80509607    -0.24400
H353        H  0.23012304  0.60715372  0.84669642     0.08200
N354        N  0.20520645  0.60847128  0.68021065    -0.45600
H355        H  0.34564770  0.60247431  0.77251898     0.08200
C356        C  0.31247945  0.37819216  0.80895823     0.43900
C357        C  0.28287887  0.60698456  0.67613912    -0.05100
Co358      Co  0.30191960  0.50382555  0.74581628     0.73800
N359        N  0.29241784  0.59282073  0.82406767    -0.45300
C360        C  0.17797606  0.39440435  0.68531580     0.44200
N361        N  0.31642217  0.41060829  0.70436722    -0.45300
Co362      Co  0.25123049  0.50334640  0.80438880     0.73900
C363        C  0.21171491  0.41044486  0.82496283    -0.05600
C364        C  0.17161903  0.60806579  0.71816281    -0.05200
N365        N  0.27527113  0.45296728  0.69176865    -0.24700
N366        N  0.17714611  0.60281684  0.79451428    -0.45500
H367        H  0.15029343  0.40818525  0.72821394     0.08200
C368        C  0.32173948  0.40408478  0.78118960    -0.05600
Cl369      Cl  0.24717063  0.50715013  0.74980290    -0.48600
C370        C  0.31753909  0.61789493  0.81507095     0.43900
H371        H  0.26408464  0.41039763  0.65145943     0.08100
N372        N  0.28863808  0.40539137  0.81952457    -0.45300
C373        C  0.12655644  0.28213317  0.66330815     0.14000
C374        C  0.12561893  0.28774105  0.63203653     0.00900
C375        C  0.14243472  0.32777144  0.61830719     0.15900
C376        C  0.15991933  0.36191585  0.63561350     0.25300
C377        C  0.16059522  0.35683397  0.66699110    -0.41000
C378        C  0.14388113  0.31648459  0.68068566     0.32400
C379        C  0.10765056  0.25102971  0.61366776     0.01000
F380        F  0.14142382  0.33437617  0.58814569    -0.13300
F381        F  0.14494503  0.30934683  0.71079458    -0.13800
C382        C  0.07639254  0.24826818  0.61716033     0.15900
C383        C  0.05956148  0.21226153  0.60038435     0.25300
C384        C  0.07384134  0.17794968  0.58007521    -0.40900
C385        C  0.10513357  0.18196514  0.57608051     0.32300
C386        C  0.12183899  0.21812080  0.59278424     0.14000
F387        F  0.06216500  0.28074548  0.63672250    -0.13300
F388        F  0.11986970  0.14970350  0.55679076    -0.13800
F389        F  0.02931350  0.21163256  0.60383322    -0.16100
F390        F  0.15209595  0.21980162  0.58930607    -0.14700
F391        F  0.11115461  0.24266270  0.67692064    -0.14700
F392        F  0.17540517  0.40095881  0.62171163    -0.16100
C393        C  0.16291287  0.27653980  0.86883824     0.14000
C394        C  0.13190713  0.27181009  0.86418038     0.00900
C395        C  0.11782418  0.30388060  0.84275863     0.15900
C396        C  0.13449094  0.34095014  0.82663569     0.25300
C397        C  0.16551712  0.34675500  0.83188315    -0.41000
C398        C  0.17954972  0.31369527  0.85299679     0.32400
C399        C  0.11437370  0.23408079  0.88223950     0.01000
F400        F  0.08776987  0.30038010  0.83809156    -0.13300
F401        F  0.20949561  0.31633818  0.85819116    -0.13800
C402        C  0.11528385  0.23686584  0.91365813     0.15900
C403        C  0.09958875  0.20033977  0.93094403     0.25300
C404        C  0.08232671  0.16084784  0.91707290    -0.40900
C405        C  0.08125412  0.15828552  0.88559675     0.32300
C406        C  0.09727436  0.19451206  0.86832242     0.14000
F407        F  0.13111082  0.27552050  0.92762264    -0.13300
F408        F  0.06554236  0.11965673  0.87149585    -0.13800
F409        F  0.10076990  0.20454070  0.96122928    -0.16100
F410        F  0.09676950  0.19005856  0.83801570    -0.14700
F411        F  0.17721827  0.24464668  0.88864021    -0.14700
F412        F  0.12002556  0.37204073  0.80655256    -0.16100
C413        C  0.15281395  0.71987504  0.62691914     0.14000
C414        C  0.13150453  0.75139777  0.64154204     0.00900
C415        C  0.12718904  0.74575082  0.67247986     0.15900
C416        C  0.14362865  0.70849066  0.68859209     0.25300
C417        C  0.16459417  0.67591389  0.67393831    -0.41000
C418        C  0.16924818  0.68244558  0.64293756     0.32400
C419        C  0.11340847  0.78956350  0.62440034     0.01000
F420        F  0.10720494  0.77680721  0.68714851    -0.13300
F421        F  0.18900825  0.65160226  0.62783206    -0.13800
C422        C  0.08206595  0.78412050  0.62298842     0.15900
C423        C  0.06493242  0.81957495  0.60626128     0.25300
C424        C  0.07897275  0.86059058  0.59044767    -0.40900
C425        C  0.11032835  0.86632153  0.59213430     0.32300
C426        C  0.12740322  0.83113376  0.60908468     0.14000
F427        F  0.06816610  0.74361290  0.63720862    -0.13300
F428        F  0.12437215  0.90683918  0.57806466    -0.13800
F429        F  0.03475407  0.81270357  0.60471425    -0.16100
F430        F  0.15757195  0.83803148  0.61094201    -0.14700
F431        F  0.15705389  0.72430881  0.59690857    -0.14700
F432        F  0.13925608  0.70514433  0.71859010    -0.16100
C433        C  0.35954683  0.20556827  0.58759586     0.14000
C434        C  0.37276999  0.23533194  0.61060307     0.00900
C435        C  0.40357314  0.22961787  0.61642652     0.15900
C436        C  0.42091374  0.19469397  0.59948099     0.25300
C437        C  0.40779133  0.16505120  0.57620542    -0.41000
C438        C  0.37682305  0.17080819  0.57053277     0.32400
C439        C  0.35457771  0.27310119  0.62814354     0.01000
F440        F  0.41700315  0.25872351  0.63818380    -0.13300
F441        F  0.36277579  0.14169483  0.54923476    -0.13800
C442        C  0.35281543  0.26892236  0.65949104     0.15900
C443        C  0.33677671  0.30622389  0.67609775     0.25300
C444        C  0.32185993  0.34768757  0.66155665    -0.40900
C445        C  0.32304806  0.35115480  0.63014086     0.32300
C446        C  0.33939922  0.31430092  0.61359884     0.14000
F447        F  0.36637235  0.22835641  0.67395502    -0.13300
F448        F  0.30955637  0.39155536  0.61547584    -0.13800
F449        F  0.33533532  0.30130563  0.70634147    -0.16100
F450        F  0.34122495  0.31982992  0.58340451    -0.14700
F451        F  0.32965496  0.20932734  0.58205503    -0.14700
F452        F  0.45065610  0.19047456  0.60565582    -0.16100
C453        C  0.41830335  0.76192347  0.88632729     0.14000
C454        C  0.38682915  0.76137689  0.88820001     0.00900
C455        C  0.37229967  0.79775409  0.90692300     0.15900
C456        C  0.38890581  0.83509243  0.92289454     0.25300
C457        C  0.42039140  0.83696035  0.92023298    -0.41000
C458        C  0.43497091  0.79946131  0.90215784     0.32400
C459        C  0.36908213  0.72445050  0.86963327     0.01000
F460        F  0.34188999  0.79848989  0.90881920    -0.13300
F461        F  0.46534579  0.79857550  0.90003926    -0.13800
C462        C  0.34911245  0.68866483  0.88297226     0.15900
C463        C  0.33200418  0.65454530  0.86521674     0.25300
C464        C  0.33483965  0.65528254  0.83377583    -0.40900
C465        C  0.35466884  0.69154127  0.82050823     0.32300
C466        C  0.37156586  0.72586335  0.83829083     0.14000
F467        F  0.34659587  0.68611686  0.91324829    -0.13300
F468        F  0.35712914  0.69500008  0.79028668    -0.13800
F469        F  0.31324667  0.61994588  0.87891222    -0.16100
F470        F  0.38990096  0.76146702  0.82485725    -0.14700
F471        F  0.43288774  0.72594438  0.86915669    -0.14700
F472        F  0.37396335  0.87077100  0.93996280    -0.16100
C473        C  0.34266452  0.29717788  0.87374530     0.14000
C474        C  0.36409516  0.26549858  0.85941538     0.00900
C475        C  0.36745042  0.26885785  0.82823692     0.15900
C476        C  0.35002739  0.30423609  0.81162964     0.25300
C477        C  0.32916458  0.33744498  0.82603423    -0.41000
C478        C  0.32532144  0.33278667  0.85726347     0.32400
C479        C  0.38259720  0.22839266  0.87704617     0.01000
F480        F  0.38736469  0.23728731  0.81383537    -0.13300
F481        F  0.30540708  0.36368875  0.87211507    -0.13800
C482        C  0.36909463  0.18503317  0.89112820     0.15900
C483        C  0.38629104  0.15038970  0.90835848     0.25300
C484        C  0.41737281  0.15828522  0.91158387    -0.40900
C485        C  0.43096835  0.20151933  0.89729391     0.32300
C486        C  0.41364552  0.23649953  0.88024365     0.14000
F487        F  0.33926363  0.17583290  0.88775667    -0.13300
F488        F  0.46080087  0.21080209  0.90059838    -0.13800
F489        F  0.37267149  0.10815396  0.92114421    -0.16100
F490        F  0.42700196  0.27893353  0.86738155    -0.14700
F491        F  0.33906327  0.29447092  0.90389963    -0.14700
F492        F  0.35329202  0.30512853  0.78142456    -0.16100
C493        C  0.13262232  0.81427892  0.90556446     0.14000
C494        C  0.11790345  0.77623895  0.88800115     0.00900
C495        C  0.08640355  0.77382929  0.88825418     0.15900
C496        C  0.06989125  0.80891078  0.90593348     0.25300
C497        C  0.08465998  0.84646507  0.92387004    -0.41000
C498        C  0.11618053  0.84894384  0.92346722     0.32400
C499        C  0.13562399  0.73823917  0.87019786     0.01000
F500        F  0.07169093  0.73680212  0.87187242    -0.13300
F501        F  0.13112372  0.88626410  0.93938702    -0.13800
C502        C  0.15622857  0.70501511  0.88460287     0.15900
C503        C  0.17346697  0.66945646  0.86811096     0.25300
C504        C  0.17032133  0.66625536  0.83678419    -0.40900
C505        C  0.14948823  0.69936896  0.82236287     0.32300
C506        C  0.13232712  0.73517923  0.83895078     0.14000
F507        F  0.15911573  0.70613014  0.91487703    -0.13300
F508        F  0.14603102  0.69764644  0.79215484    -0.13800
F509        F  0.19228321  0.63682767  0.88312717    -0.16100
F510        F  0.11285686  0.76748302  0.82447510    -0.14700
F511        F  0.16299634  0.81848877  0.90488385    -0.14700
F512        F  0.03947321  0.80554199  0.90597546    -0.16100
C513        C  0.38007844  0.69866946  0.65435273     0.14000
C514        C  0.36685511  0.73515334  0.63470384     0.00900
C515        C  0.33539314  0.73832610  0.63315625     0.15900
C516        C  0.31746152  0.70460074  0.65020845     0.25300
C517        C  0.33063906  0.66717624  0.66934021    -0.41000
C518        C  0.36215344  0.66535385  0.67174087     0.32400
C519        C  0.38562291  0.77046579  0.61601837     0.01000
F520        F  0.32196486  0.77471676  0.61535848    -0.13300
F521        F  0.37576843  0.63013849  0.69014424    -0.13800
C522        C  0.38122223  0.77279999  0.58487075     0.15900
C523        C  0.39695367  0.80935037  0.56749774     0.25300
C524        C  0.41760250  0.84418572  0.58093546    -0.40900
C525        C  0.42315663  0.83975069  0.61192564     0.32300
C526        C  0.40716872  0.80352998  0.62928981     0.14000
F527        F  0.36158431  0.73957027  0.57122340    -0.13300
F528        F  0.44325773  0.87177699  0.62580354    -0.13800
F529        F  0.39201658  0.81007038  0.53752003    -0.16100
F530        F  0.41186394  0.80239165  0.65933280    -0.14700
F531        F  0.41039078  0.69414173  0.65606380    -0.14700
F532        F  0.28719032  0.70942233  0.64834827    -0.16100
C533        C  0.56104829  0.89735950  0.07231881     0.43800
N534        N  0.54982426  0.95545392  0.03950611     0.02700
C535        C  0.91865289  0.10073552  0.03074448    -0.05200
H536        H  0.90426018  0.89873709  0.02034860     0.08200
C537        C  0.96561240  0.90367688  0.42594952    -0.05600
Co538      Co  0.99290848  0.01139800  0.05462056     0.74200
N539        N  0.94173368  0.94941684  0.03002279    -0.24700
Co540      Co  0.94290959  0.00455392  0.49544230     0.74100
C541        C  0.93761017  0.87881403  0.43559196     0.43900
N542        N  0.53574391  0.94658700  0.45046326     0.02300
N543        N  0.94688829  0.94509657  0.46386914     0.02400
N544        N  0.95127429  0.10368992  0.06952255    -0.45600
H545        H  0.51799490  0.91375866  0.09928125     0.08100
N546        N  0.96082910  0.95193371  0.05255664     0.02700
N547        N  0.94562063  0.05971576  0.46092805     0.02400
C548        C  0.93534778  0.12100426  0.42953621     0.44000
N549        N  0.55507651  0.94934070  0.47283270    -0.24200
C550        C  0.52875127  0.11133663  0.07364309    -0.05100
N551        N  0.57086335  0.92129048  0.04720496    -0.45300
N552        N  0.92513068  0.09542470  0.45399116    -0.45500
C553        C  0.55667058  0.13660953  0.06411930     0.43800
N554        N  0.95869708  0.06665984  0.04997741     0.02700
N555        N  0.55404369  0.06325089  0.46983851    -0.24200
N556        N  0.52713032  0.95620141  0.05845186    -0.24700
N557        N  0.53503604  0.06090698  0.44723163     0.03700
H558        H  0.59348142  0.10999699  0.47835721     0.08200
H559        H  0.97839623  0.10498813  0.40245891     0.08200
N560        N  0.93979644  0.06383071  0.02732364    -0.24800
N561        N  0.96940075  0.94437508  0.44475769    -0.24400
N562        N  0.54794605  0.06977036  0.03596137     0.02700
C563        C  0.93254499  0.88605173  0.06319900     0.44100
C564        C  0.57581027  0.91165271  0.46915377    -0.05600
N565        N  0.96839789  0.05937308  0.44204232    -0.24400
H566        H  0.97997386  0.89442043  0.40716509     0.08200
N567        N  0.95600091  0.91511949  0.07295654    -0.45600
H568        H  0.59508289  0.90537390  0.48343911     0.08200
C569        C  0.56577101  0.12217148  0.43527019     0.43900
C570        C  0.53206306  0.92038719  0.07991815    -0.05100
Co571      Co  0.55232214  0.00941993  0.00464626     0.73800
N572        N  0.54220052  0.90867461  0.43116115    -0.45300
C573        C  0.92619790  0.12710066  0.05891174     0.44200
N574        N  0.56735597  0.10829932  0.04083556    -0.45300
Co575      Co  0.50218979  0.00280753  0.44549323     0.73900
C576        C  0.96405222  0.09715159  0.42147148    -0.05600
C577        C  0.92289425  0.90906384  0.03470437    -0.05200
N578        N  0.52529834  0.07044804  0.05496503    -0.24700
N579        N  0.92722824  0.90699537  0.45900283    -0.45500
H580        H  0.89984233  0.10644592  0.01582599     0.08200
C581        C  0.57428974  0.10101298  0.46442056    -0.05600
Cl582      Cl  0.49759707  0.00707228  0.00004536    -0.48600
C583        C  0.56709385  0.88464920  0.44152382     0.43900
H584        H  0.51424954  0.12020827  0.09236691     0.08100
N585        N  0.54143929  0.09514056  0.42584904    -0.45300
C586        C  0.81177271  0.62873395  0.18564980     0.43800
N587        N  0.80009451  0.56399412  0.21421558     0.02700
C588        C  0.66945515  0.41683795  0.21421709    -0.05200
H589        H  0.65230330  0.61481104  0.23226944     0.08200
C590        C  0.71542902  0.60042832  0.32781188    -0.05600
Co591      Co  0.74312107  0.51174957  0.19518403     0.74200
N592        N  0.69145366  0.56904074  0.22181720    -0.24700
Co593      Co  0.69239237  0.50970050  0.25382341     0.74100
C594        C  0.68759549  0.62709648  0.31934968     0.43900
N595        N  0.78564529  0.55840425  0.30283419     0.02300
N596        N  0.69652424  0.56500752  0.28800898     0.02400
N597        N  0.70241821  0.42085677  0.17572819    -0.45600
H598        H  0.76900761  0.61712915  0.15713590     0.08100
N599        N  0.71089021  0.57034791  0.19959451     0.02700
N600        N  0.69434329  0.45038950  0.28591888     0.02400
C601        C  0.68299705  0.38764417  0.31598591     0.44000
N602        N  0.80507843  0.55852925  0.28057869    -0.24200
C603        C  0.77858140  0.41599904  0.17063685    -0.05100
N604        N  0.82115178  0.59970232  0.20917732    -0.45300
N605        N  0.67341350  0.41478519  0.29176865    -0.45500
C606        C  0.80575675  0.38785549  0.17913741     0.43800
N607        N  0.70890339  0.45585734  0.19675691     0.02700
N608        N  0.80243789  0.44405243  0.27769691    -0.24200
N609        N  0.77761399  0.56711184  0.19505993    -0.24700
N610        N  0.78323649  0.44373430  0.30015525     0.02300
H611        H  0.84082440  0.39641600  0.26692474     0.08200
H612        H  0.72575463  0.40237964  0.34415209     0.08200
N613        N  0.68980839  0.45469855  0.21932489    -0.24800
N614        N  0.71899305  0.56256358  0.30721558    -0.24400
N615        N  0.79750507  0.44905961  0.21116501     0.02700
C616        C  0.68088993  0.63443703  0.19058210     0.44100
C617        C  0.82609320  0.59507756  0.28619441    -0.05600
N618        N  0.71680410  0.44868727  0.30510325    -0.24400
H619        H  0.73013804  0.60717367  0.34669350     0.08200
N620        N  0.70520813  0.60847394  0.18021220    -0.45600
H621        H  0.84565845  0.60245898  0.27251950     0.08200
C622        C  0.81247454  0.37818825  0.30896218     0.43900
C623        C  0.78288328  0.60697601  0.17613904    -0.05100
Co624      Co  0.80192120  0.50382011  0.24581803     0.73800
N625        N  0.79242782  0.59282035  0.32406820    -0.45300
C626        C  0.67797162  0.39440695  0.18532444     0.44200
N627        N  0.81641727  0.41059810  0.20437023    -0.45300
Co628      Co  0.75123443  0.50335535  0.30439165     0.73900
C629        C  0.71171457  0.41047046  0.32497466    -0.05600
C630        C  0.67162226  0.60807384  0.21816579    -0.05200
N631        N  0.77526773  0.45296207  0.19177284    -0.24700
N632        N  0.67715613  0.60283698  0.29451624    -0.45500
H633        H  0.65028853  0.40820215  0.22822198     0.08200
C634        C  0.82173601  0.40407807  0.28119302    -0.05600
Cl635      Cl  0.74717232  0.50715357  0.24980621    -0.48600
C636        C  0.81755118  0.61788772  0.31507160     0.43900
H637        H  0.76407643  0.41039072  0.15146569     0.08100
N638        N  0.78863530  0.40539310  0.31952856    -0.45300
C639        C  0.62652710  0.28216067  0.16332313     0.14000
C640        C  0.62563365  0.28770472  0.13204670     0.00900
C641        C  0.64248763  0.32768051  0.11831294     0.15900
C642        C  0.65996447  0.36183710  0.13561949     0.25300
C643        C  0.66059617  0.35682163  0.16700199    -0.41000
C644        C  0.64384578  0.31652177  0.18070073     0.32400
C645        C  0.60766903  0.25098594  0.11367860     0.01000
F646        F  0.64152160  0.33422163  0.08814548    -0.13300
F647        F  0.64486723  0.30943936  0.21081523    -0.13800
C648        C  0.57640429  0.24828924  0.11712975     0.15900
C649        C  0.55957449  0.21228411  0.10035120     0.25300
C650        C  0.57386127  0.17791359  0.08007985    -0.40900
C651        C  0.60516164  0.18185699  0.07612853     0.32300
C652        C  0.62186655  0.21800917  0.09283553     0.14000
F653        F  0.56216934  0.28082999  0.13665239    -0.13300
F654        F  0.61990372  0.14952679  0.05688039    -0.13800
F655        F  0.52932110  0.21171435  0.10375770    -0.16100
F656        F  0.65212960  0.21962310  0.08940022    -0.14700
F657        F  0.61108737  0.24274229  0.17694158    -0.14700
F658        F  0.67548760  0.40082631  0.12171037    -0.16100
C659        C  0.66290978  0.27658198  0.36886524     0.14000
C660        C  0.63190749  0.27182648  0.36419277     0.00900
C661        C  0.61782731  0.30387929  0.34276047     0.15900
C662        C  0.63449322  0.34095392  0.32664032     0.25300
C663        C  0.66551571  0.34678316  0.33190130    -0.41000
C664        C  0.67954528  0.31374418  0.35302778     0.32400
C665        C  0.61437468  0.23408914  0.38224768     0.01000
F666        F  0.58777606  0.30035580  0.33807933    -0.13300
F667        F  0.70948733  0.31641246  0.35823936    -0.13800
C668        C  0.61527736  0.23687364  0.41366668     0.15900
C669        C  0.59958407  0.20033992  0.43094878     0.25300
C670        C  0.58232964  0.16084233  0.41707369    -0.40900
C671        C  0.58126367  0.15828058  0.38559744     0.32300
C672        C  0.59728366  0.19451302  0.36832672     0.14000
F673        F  0.63109508  0.27553519  0.42763547    -0.13300
F674        F  0.56555892  0.11964671  0.37149324    -0.13800
F675        F  0.60075911  0.20453920  0.46123435    -0.16100
F676        F  0.59678682  0.19005791  0.33801994    -0.14700
F677        F  0.67721396  0.24470638  0.38867726    -0.14700
F678        F  0.62003021  0.37202364  0.30654506    -0.16100
C679        C  0.65281413  0.71988111  0.12692187     0.14000
C680        C  0.63150320  0.75140037  0.14154517     0.00900
C681        C  0.62718856  0.74575247  0.17248296     0.15900
C682        C  0.64362976  0.70849394  0.18859468     0.25300
C683        C  0.66459621  0.67591930  0.17394051    -0.41000
C684        C  0.66924999  0.68245293  0.14293984     0.32400
C685        C  0.61340503  0.78956430  0.12440425     0.01000
F686        F  0.60720368  0.77680651  0.18715218    -0.13300
F687        F  0.68901143  0.65161281  0.12783404    -0.13800
C688        C  0.58206245  0.78411892  0.12299399     0.15900
C689        C  0.56492706  0.81957195  0.10626757     0.25300
C690        C  0.57896573  0.86058778  0.09045281    -0.40900
C691        C  0.61032117  0.86632207  0.09213861     0.32300
C692        C  0.62739779  0.83113624  0.10908837     0.14000
F693        F  0.56816439  0.74361023  0.13721492    -0.13300
F694        F  0.62436325  0.90684092  0.07806835    -0.13800
F695        F  0.53474878  0.81269870  0.10472200    -0.16100
F696        F  0.65756633  0.83803734  0.11094470    -0.14700
F697        F  0.65705402  0.72431695  0.09691139    -0.14700
F698        F  0.63925746  0.70514708  0.21859268    -0.16100
C699        C  0.85953719  0.20554398  0.08760414     0.14000
C700        C  0.87275943  0.23531401  0.11060928     0.00900
C701        C  0.90356343  0.22960763  0.11643120     0.15900
C702        C  0.92090561  0.19468515  0.09948638     0.25300
C703        C  0.90778420  0.16503712  0.07621250    -0.41000
C704        C  0.87681518  0.17078626  0.07054131     0.32400
C705        C  0.85456556  0.27308210  0.12814913     0.01000
F706        F  0.91699280  0.25871973  0.13818609    -0.13300
F707        F  0.86276903  0.14166725  0.04924504    -0.13800
C708        C  0.85281067  0.26891411  0.15949754     0.15900
C709        C  0.83677303  0.30621775  0.17610359     0.25300
C710        C  0.82184959  0.34767258  0.16156119    -0.40900
C711        C  0.82302913  0.35112752  0.13014456     0.32300
C712        C  0.83937944  0.31427181  0.11360306     0.14000
F713        F  0.86637438  0.22835720  0.17396334    -0.13300
F714        F  0.80953045  0.39151869  0.11547761    -0.13800
F715        F  0.83533999  0.30131077  0.20634832    -0.16100
F716        F  0.84119744  0.31979061  0.08340765    -0.14700
F717        F  0.82964464  0.20929453  0.08206502    -0.14700
F718        F  0.95064854  0.19047265  0.10565998    -0.16100
C719        C  0.91831528  0.76192467  0.38632519     0.14000
C720        C  0.88684123  0.76136987  0.38820097     0.00900
C721        C  0.87231065  0.79774249  0.40692613     0.15900
C722        C  0.88891535  0.83508351  0.42289692     0.25300
C723        C  0.92040048  0.83695959  0.42023213    -0.41000
C724        C  0.93498126  0.79946637  0.40215426     0.32400
C725        C  0.86909538  0.72444120  0.36963435     0.01000
F726        F  0.84190110  0.79847174  0.40882524    -0.13300
F727        F  0.96535592  0.79858989  0.40003148    -0.13800
C728        C  0.84912243  0.68866050  0.38297292     0.15900
C729        C  0.83201424  0.65454130  0.36521720     0.25300
C730        C  0.83485361  0.65527254  0.33377654    -0.40900
C731        C  0.85468703  0.69152446  0.32050940     0.32300
C732        C  0.87158322  0.72584751  0.33829207     0.14000
F733        F  0.84660209  0.68611735  0.41324879    -0.13300
F734        F  0.85715210  0.69497655  0.29028802    -0.13800
F735        F  0.81325247  0.61994864  0.37891243    -0.16100
F736        F  0.88992110  0.76144660  0.32485837    -0.14700
F737        F  0.93290120  0.72594985  0.36915300    -0.14700
F738        F  0.87397168  0.87075687  0.43996767    -0.16100
C739        C  0.84264617  0.29715640  0.37374858     0.14000
C740        C  0.86408246  0.26548567  0.35942091     0.00900
C741        C  0.86744468  0.26885409  0.32824355     0.15900
C742        C  0.85002355  0.30423364  0.31163541     0.25300
C743        C  0.82915618  0.33743631  0.32603812    -0.41000
C744        C  0.82530531  0.33276740  0.35726598     0.32400
C745        C  0.88258514  0.22838253  0.37705297     0.01000
F746        F  0.88736446  0.23729182  0.31384373    -0.13300
F747        F  0.80538548  0.36366120  0.37211583    -0.13800
C748        C  0.86908365  0.18502417  0.39113730     0.15900
C749        C  0.88628112  0.15038407  0.40836873     0.25300
C750        C  0.91736284  0.15828174  0.41159283    -0.40900
C751        C  0.93095722  0.20151458  0.39730056     0.32300
C752        C  0.91363342  0.23649133  0.38024926     0.14000
F753        F  0.83925286  0.17582107  0.38776644    -0.13300
F754        F  0.96078974  0.21079922  0.40060341    -0.13800
F755        F  0.87266275  0.10814902  0.42115643    -0.16100
F756        F  0.92698901  0.27892392  0.36738477    -0.14700
F757        F  0.83903781  0.29444031  0.40390179    -0.14700
F758        F  0.85329524  0.30513387  0.28143122    -0.16100
C759        C  0.63262780  0.81428360  0.40557295     0.14000
C760        C  0.61791310  0.77624460  0.38800566     0.00900
C761        C  0.58641330  0.77382890  0.38825474     0.15900
C762        C  0.56989684  0.80890480  0.40593342     0.25300
C763        C  0.58466138  0.84645843  0.42387360    -0.41000
C764        C  0.61618190  0.84894236  0.42347534     0.32400
C765        C  0.63563761  0.73825339  0.37020107     0.01000
F766        F  0.57170481  0.73680162  0.37186935    -0.13300
F767        F  0.63112128  0.88626225  0.43939898    -0.13800
C768        C  0.65624589  0.70503439  0.38460454     0.15900
C769        C  0.67348570  0.66948035  0.36811122     0.25300
C770        C  0.67033737  0.66627864  0.33678472    -0.40900
C771        C  0.64950200  0.69938946  0.32236486     0.32300
C772        C  0.63233979  0.73519550  0.33895409     0.14000
F773        F  0.65913473  0.70614845  0.41487857    -0.13300
F774        F  0.64604287  0.69766703  0.29215705    -0.13800
F775        F  0.69230532  0.63685557  0.38312604    -0.16100
F776        F  0.61286680  0.76749626  0.32447989    -0.14700
F777        F  0.66300167  0.81849928  0.40489633    -0.14700
F778        F  0.53947894  0.80553168  0.40597092    -0.16100
C779        C  0.88008733  0.69865590  0.15435587     0.14000
C780        C  0.86686572  0.73513343  0.13470203     0.00900
C781        C  0.83540392  0.73830211  0.13314918     0.15900
C782        C  0.81747083  0.70457939  0.15020129     0.25300
C783        C  0.83064656  0.66716096  0.16933811    -0.41000
C784        C  0.86216073  0.66534258  0.17174387     0.32400
C785        C  0.88563466  0.77044581  0.11601775     0.01000
F786        F  0.82197704  0.77468698  0.11534656    -0.13300
F787        F  0.87577418  0.63013429  0.19015278    -0.13800
C788        C  0.88123755  0.77277647  0.08486953     0.15900
C789        C  0.89696703  0.80933111  0.06749775     0.25300
C790        C  0.91761082  0.84417338  0.08093724    -0.40900
C791        C  0.92316220  0.83974146  0.11192804     0.32300
C792        C  0.90717591  0.80351688  0.12929106     0.14000
F793        F  0.86160436  0.73954017  0.07122056    -0.13300
F794        F  0.94325824  0.87177532  0.12580759    -0.13800
F795        F  0.89203281  0.81004915  0.03751954    -0.16100
F796        F  0.91186749  0.80238230  0.15933466    -0.14700
F797        F  0.91039960  0.69413262  0.15607240    -0.14700
F798        F  0.78719984  0.70939843  0.14833613    -0.16100
C799        C  0.56104652  0.89736109  0.57231809     0.43800
N800        N  0.54982395  0.95545575  0.53950497     0.02700
C801        C  0.91865167  0.10072803  0.53075155    -0.05200
H802        H  0.90426455  0.89872879  0.52034507     0.08200
C803        C  0.96561291  0.90367435  0.92594985    -0.05600
Co804      Co  0.99290976  0.01139232  0.55462209     0.74200
N805        N  0.94173587  0.94941063  0.53002259    -0.24700
Co806      Co  0.94290959  0.00455592  0.99544025     0.74100
C807        C  0.93761084  0.87881154  0.93559259     0.43900
N808        N  0.53574246  0.94658345  0.95046561     0.02300
N809        N  0.94688846  0.94509569  0.96386875     0.02400
N810        N  0.95127391  0.10367865  0.56952897    -0.45600
H811        H  0.51799282  0.91376192  0.59927937     0.08100
N812        N  0.96083191  0.95192471  0.55255600     0.02700
N813        N  0.94562205  0.05971488  0.96092497     0.02400
C814        C  0.93535034  0.12100345  0.92953283     0.44000
N815        N  0.55507498  0.94933771  0.97283497    -0.24200
C816        C  0.52874892  0.11134080  0.57364020    -0.05100
N817        N  0.57086252  0.92129160  0.54720440    -0.45300
N818        N  0.92513271  0.09542451  0.95398768    -0.45500
C819        C  0.55666826  0.13661409  0.56411718     0.43800
N820        N  0.95869698  0.06665198  0.54998182     0.02700
N821        N  0.55404401  0.06324803  0.96983927    -0.24200
N822        N  0.52712971  0.95620427  0.55845036    -0.24700
N823        N  0.53503654  0.06090341  0.94723226     0.03700
H824        H  0.59348313  0.10999178  0.97835644     0.08200
H825        H  0.97839922  0.10498571  0.90245635     0.08200
N826        N  0.93979597  0.06382514  0.52732817    -0.24800
N827        N  0.96940099  0.94437338  0.94475735    -0.24400
N828        N  0.54794567  0.06977292  0.53596001     0.02700
C829        C  0.93255052  0.88603623  0.56319415     0.44100
C830        C  0.57580734  0.91164689  0.96915812    -0.05600
N831        N  0.96839973  0.05937130  0.94203981    -0.24400
H832        H  0.97997474  0.89441717  0.90716580     0.08200
N833        N  0.95600567  0.91510488  0.57295319    -0.45600
H834        H  0.59507885  0.90536726  0.98344420     0.08200
C835        C  0.56577332  0.12216394  0.93526899     0.43900
C836        C  0.53206145  0.92038988  0.57991680    -0.05100
Co837      Co  0.55232244  0.00942211  0.50464493     0.73800
N838        N  0.54219778  0.90866769  0.93116516    -0.45300
C839        C  0.92619676  0.12708932  0.55891998     0.44200
N840        N  0.56735497  0.10830290  0.54083434    -0.45300
Co841      Co  0.50218917  0.00280575  0.94549492     0.73900
C842        C  0.96405478  0.09714978  0.92146868    -0.05600
C843        C  0.92289813  0.90905443  0.53470165    -0.05200
N844        N  0.52529728  0.07045111  0.55496273    -0.24700
N845        N  0.92722860  0.90699395  0.95900300    -0.45500
H846        H  0.89984015  0.10643972  0.51583405     0.08200
C847        C  0.57429110  0.10100813  0.96442027    -0.05600
Cl848      Cl  0.49759723  0.00707329  0.50004350    -0.48600
C849        C  0.56709006  0.88464095  0.94152937     0.43900
H850        H  0.51424632  0.12021289  0.59236322     0.08100
N851        N  0.54144099  0.09513412  0.92584848    -0.45300
C852        C  0.81177044  0.62873745  0.68565149     0.43800
N853        N  0.80009229  0.56399633  0.71421644     0.02700
C854        C  0.66945205  0.41684166  0.71421847    -0.05200
H855        H  0.65230171  0.61481410  0.73227153     0.08200
C856        C  0.71542713  0.60042798  0.82781396    -0.05600
Co857      Co  0.74311889  0.51175139  0.69518462     0.74200
N858        N  0.69145172  0.56904333  0.72181843    -0.24700
Co859      Co  0.69239035  0.50970279  0.75382453     0.74100
C860        C  0.68759333  0.62709592  0.81935253     0.43900
N861        N  0.78564358  0.55840474  0.80283549     0.02300
N862        N  0.69652252  0.56500927  0.78801040     0.02400
N863        N  0.70241471  0.42085876  0.67572917    -0.45600
H864        H  0.76900548  0.61713455  0.65713763     0.08100
N865        N  0.71088786  0.57035025  0.69959533     0.02700
N866        N  0.69434109  0.45039116  0.78591972     0.02400
C867        C  0.68299542  0.38764397  0.81598594     0.44000
N868        N  0.80507644  0.55853020  0.78057973    -0.24200
C869        C  0.77857991  0.41599812  0.67063819    -0.05100
N870        N  0.82114955  0.59970475  0.70917855    -0.45300
N871        N  0.67341162  0.41478593  0.79176903    -0.45500
C872        C  0.80575496  0.38785384  0.67913994     0.43800
N873        N  0.70890077  0.45585918  0.69675777     0.02700
N874        N  0.80243594  0.44405391  0.77769752    -0.24200
N875        N  0.77761183  0.56711445  0.69506073    -0.24700
N876        N  0.78323453  0.44373485  0.80015592     0.02300
H877        H  0.84082308  0.39641947  0.76692489     0.08200
H878        H  0.72575326  0.40237943  0.84415209     0.08200
N879        N  0.68980593  0.45470128  0.71932592    -0.24800
N880        N  0.71899136  0.56256456  0.80721695    -0.24400
N881        N  0.79750314  0.44906113  0.71116585     0.02700
C882        C  0.68088751  0.63444001  0.69058363     0.44100
C883        C  0.82609175  0.59507728  0.78619583    -0.05600
N884        N  0.71680203  0.44868848  0.80510397    -0.24400
H885        H  0.73013603  0.60717205  0.84669590     0.08200
N886        N  0.70520545  0.60847653  0.68021318    -0.45600
H887        H  0.84565715  0.60245819  0.77252102     0.08200
C888        C  0.81247333  0.37818908  0.80896242     0.43900
C889        C  0.78288099  0.60697995  0.67614048    -0.05100
Co890      Co  0.80191906  0.50382178  0.74581881     0.73800
N891        N  0.79242689  0.59281932  0.82407008    -0.45300
C892        C  0.67796776  0.39441006  0.68532582     0.44200
N893        N  0.81641498  0.41059830  0.70437240    -0.45300
Co894      Co  0.75123256  0.50335613  0.80439261     0.73900
C895        C  0.71171274  0.41047089  0.82497486    -0.05600
C896        C  0.67162045  0.60807678  0.71816748    -0.05200
N897        N  0.77526602  0.45296301  0.69177336    -0.24700
N898        N  0.67715409  0.60283774  0.79451860    -0.45500
H899        H  0.65028546  0.40820706  0.72822359     0.08200
C900        C  0.82173440  0.40408026  0.78119349    -0.05600
Cl901      Cl  0.74717025  0.50715523  0.74980704    -0.48600
C902        C  0.81755045  0.61788610  0.81507351     0.43900
H903        H  0.76407490  0.41038807  0.65146721     0.08100
N904        N  0.78863376  0.40539327  0.81952893    -0.45300
C905        C  0.62652057  0.28216618  0.66332552     0.14000
C906        C  0.62562790  0.28770858  0.63204896     0.00900
C907        C  0.64248239  0.32768351  0.61831500     0.15900
C908        C  0.65995949  0.36184007  0.63562129     0.25300
C909        C  0.66059120  0.35682540  0.66700380    -0.41000
C910        C  0.64383969  0.31652717  0.68070290     0.32400
C911        C  0.60766412  0.25098873  0.61368060     0.01000
F912        F  0.64151677  0.33422356  0.58814746    -0.13300
F913        F  0.64486049  0.30944609  0.71081754    -0.13800
C914        C  0.57639911  0.24829290  0.61712951     0.15900
C915        C  0.55957013  0.21228881  0.60034932     0.25300
C916        C  0.57385804  0.17791827  0.58007870    -0.40900
C917        C  0.60515868  0.18186086  0.57612966     0.32300
C918        C  0.62186276  0.21801186  0.59283830     0.14000
F919        F  0.56216308  0.28083372  0.63665134    -0.13300
F920        F  0.61990175  0.14953120  0.55688199    -0.13800
F921        F  0.52931644  0.21172035  0.60375331    -0.16100
F922        F  0.65212608  0.21962483  0.58940517    -0.14700
F923        F  0.61107985  0.24274935  0.67694431    -0.14700
F924        F  0.67548296  0.40082849  0.62171185    -0.16100
C925        C  0.66291033  0.27657934  0.86886465     0.14000
C926        C  0.63190874  0.27181806  0.86418990     0.00900
C927        C  0.61782840  0.30386688  0.84275579     0.15900
C928        C  0.63449337  0.34094431  0.82663657     0.25300
C929        C  0.66551510  0.34677971  0.83190003    -0.41000
C930        C  0.67954495  0.31374354  0.85302783     0.32400
C931        C  0.61437675  0.23407971  0.88224494     0.01000
F932        F  0.58777778  0.30033696  0.83807211    -0.13300
F933        F  0.70948646  0.31641659  0.85824158    -0.13800
C934        C  0.61527529  0.23687072  0.91366387     0.15900
C935        C  0.59958246  0.20033698  0.93094642     0.25300
C936        C  0.58233269  0.16083277  0.91707178    -0.40900
C937        C  0.58127156  0.15826334  0.88559556     0.32300
C938        C  0.59729095  0.19449619  0.86832440     0.14000
F939        F  0.63108841  0.27553876  0.92763204    -0.13300
F940        F  0.56557221  0.11962177  0.87149218    -0.13800
F941        F  0.60075296  0.20454270  0.96123189    -0.16100
F942        F  0.59679862  0.19003470  0.83801786    -0.14700
F943        F  0.67721469  0.24470775  0.88867863    -0.14700
F944        F  0.62003010  0.37201046  0.80653970    -0.16100
C945        C  0.65280981  0.71988459  0.62692424     0.14000
C946        C  0.63149930  0.75140387  0.64154811     0.00900
C947        C  0.62718530  0.74575561  0.67248594     0.15900
C948        C  0.64362707  0.70849707  0.68859723     0.25300
C949        C  0.66459328  0.67592253  0.67394249    -0.41000
C950        C  0.66924611  0.68245626  0.64294169     0.32400
C951        C  0.61340130  0.78956859  0.62440752     0.01000
F952        F  0.60720059  0.77680932  0.68715561    -0.13300
F953        F  0.68900710  0.65161620  0.62783530    -0.13800
C954        C  0.58205895  0.78412109  0.62299473     0.15900
C955        C  0.56492415  0.81957312  0.60626690     0.25300
C956        C  0.57896322  0.86059020  0.59045346    -0.40900
C957        C  0.61031831  0.86632726  0.59214241     0.32300
C958        C  0.62739429  0.83114234  0.60909344     0.14000
F959        F  0.56816071  0.74361115  0.63721433    -0.13300
F960        F  0.62436052  0.90684778  0.57807384    -0.13800
F961        F  0.53474616  0.81269763  0.60471853    -0.16100
F962        F  0.65756248  0.83804573  0.61095254    -0.14700
F963        F  0.65704889  0.72432075  0.59691366    -0.14700
F964        F  0.63925563  0.70515020  0.71859535    -0.16100
C965        C  0.85953467  0.20552059  0.58761943     0.14000
C966        C  0.87275809  0.23529783  0.61062093     0.00900
C967        C  0.90356312  0.22959731  0.61643960     0.15900
C968        C  0.92090535  0.19467557  0.59949406     0.25300
C969        C  0.90778283  0.16502224  0.57622299    -0.41000
C970        C  0.87681261  0.17076329  0.57055618     0.32400
C971        C  0.85456443  0.27306939  0.62815890     0.01000
F972        F  0.91699346  0.25871533  0.63819134    -0.13300
F973        F  0.86276563  0.14163699  0.54926364    -0.13800
C974        C  0.85281016  0.26890852  0.65950763     0.15900
C975        C  0.83677184  0.30621500  0.67611126     0.25300
C976        C  0.82184750  0.34766630  0.66156619    -0.40900
C977        C  0.82302662  0.35111393  0.63014927     0.32300
C978        C  0.83937734  0.31425516  0.61361021     0.14000
F979        F  0.86637505  0.22835576  0.67397610    -0.13300
F980        F  0.80952710  0.39150102  0.61547951    -0.13800
F981        F  0.83533904  0.30131414  0.70635633    -0.16100
F982        F  0.84119475  0.31976706  0.58341435    -0.14700
F983        F  0.82964121  0.20926476  0.58208390    -0.14700
F984        F  0.95064948  0.19047004  0.60566352    -0.16100
C985        C  0.91831669  0.76192427  0.88632390     0.14000
C986        C  0.88684283  0.76136528  0.88820232     0.00900
C987        C  0.87231234  0.79773415  0.90692990     0.15900
C988        C  0.88891682  0.83507553  0.92290060     0.25300
C989        C  0.92040164  0.83695589  0.92023325    -0.41000
C990        C  0.93498243  0.79946633  0.90215286     0.32400
C991        C  0.86909689  0.72443645  0.86963593     0.01000
F992        F  0.84190292  0.79845970  0.90883142    -0.13300
F993        F  0.96535693  0.79859379  0.90002725    -0.13800
C994        C  0.84912529  0.68865376  0.88297485     0.15900
C995        C  0.83201631  0.65453547  0.86521932     0.25300
C996        C  0.83485373  0.65526942  0.83377852    -0.40900
C997        C  0.85468607  0.69152276  0.82051109     0.32300
C998        C  0.87158290  0.72584506  0.83829353     0.14000
F999        F  0.84660694  0.68610805  0.91325082    -0.13300
F1000       F  0.85714925  0.69497718  0.79028964    -0.13800
F1001       F  0.81325566  0.61994121  0.87891476    -0.16100
F1002       F  0.88991945  0.76144589  0.82485951    -0.14700
F1003       F  0.93290268  0.72595339  0.86914909    -0.14700
F1004       F  0.87397305  0.87074505  0.93997384    -0.16100
C1005       C  0.84264005  0.29714542  0.87374686     0.14000
C1006       C  0.86408253  0.26548591  0.85942022     0.00900
C1007       C  0.86744985  0.26886440  0.82824379     0.15900
C1008       C  0.85002805  0.30424299  0.81163580     0.25300
C1009       C  0.82915501  0.33743588  0.82603774    -0.41000
C1010       C  0.82529864  0.33275605  0.85726443     0.32400
C1011       C  0.88258603  0.22838292  0.87705187     0.01000
F1012       F  0.88737526  0.23731243  0.81384448    -0.13300
F1013       F  0.80537240  0.36363823  0.87211354    -0.13800
C1014       C  0.86908532  0.18502336  0.89113581     0.15900
C1015       C  0.88628351  0.15038272  0.90836607     0.25300
C1016       C  0.91736530  0.15828052  0.91158930    -0.40900
C1017       C  0.93095913  0.20151379  0.89729700     0.32300
C1018       C  0.91363456  0.23649145  0.88024700     0.14000
F1019       F  0.83925459  0.17581913  0.88776542    -0.13300
F1020       F  0.96079182  0.21079807  0.90059865    -0.13800
F1021       F  0.87266568  0.10814694  0.92115357    -0.16100
F1022       F  0.92698969  0.27892469  0.86738270    -0.14700
F1023       F  0.83902613  0.29441907  0.90389912    -0.14700
F1024       F  0.85330495  0.30515148  0.78143231    -0.16100
C1025       C  0.63262333  0.81427151  0.90558051     0.14000
C1026       C  0.61790836  0.77623114  0.88801448     0.00900
C1027       C  0.58640860  0.77381388  0.88826492     0.15900
C1028       C  0.56989237  0.80889084  0.90594309     0.25300
C1029       C  0.58465719  0.84644724  0.92388111    -0.41000
C1030       C  0.61617769  0.84893142  0.92348228     0.32400
C1031       C  0.63563267  0.73824176  0.87020869     0.01000
F1032       F  0.57170000  0.73678488  0.87188093    -0.13300
F1033       F  0.63111728  0.88625314  0.93940437    -0.13800
C1034       C  0.65624219  0.70502335  0.88461072     0.15900
C1035       C  0.67348287  0.66947282  0.86811590     0.25300
C1036       C  0.67033418  0.66627430  0.83678929    -0.40900
C1037       C  0.64949742  0.69938444  0.82237094     0.32300
C1038       C  0.63233427  0.73518682  0.83896172     0.14000
F1039       F  0.65913170  0.70613504  0.91488472    -0.13300
F1040       F  0.64603786  0.69766512  0.79216312    -0.13800
F1041       F  0.69230384  0.63684851  0.88312933    -0.16100
F1042       F  0.61286001  0.76748733  0.82448903    -0.14700
F1043       F  0.66299714  0.81848804  0.90490279    -0.14700
F1044       F  0.53947452  0.80551675  0.90598199    -0.16100
C1045       C  0.88008740  0.69863550  0.65434601     0.14000
C1046       C  0.86686673  0.73512218  0.63469696     0.00900
C1047       C  0.83540488  0.73830451  0.63315122     0.15900
C1048       C  0.81747082  0.70458642  0.65020561     0.25300
C1049       C  0.83064564  0.66716010  0.66933801    -0.41000
C1050       C  0.86216000  0.66532813  0.67173680     0.32400
C1051       C  0.88563708  0.77043076  0.61601133     0.01000
F1052       F  0.82197907  0.77469813  0.61535356    -0.13300
F1053       F  0.87577254  0.63011165  0.69014129    -0.13800
C1054       C  0.88123324  0.77277312  0.58486433     0.15900
C1055       C  0.89696472  0.80932525  0.56749246     0.25300
C1056       C  0.91761676  0.84415440  0.58093067    -0.40900
C1057       C  0.92317566  0.83970802  0.61191945     0.32300
C1058       C  0.90718766  0.80348588  0.62928255     0.14000
F1059       F  0.86159147  0.73955094  0.57121656    -0.13300
F1060       F  0.94328130  0.87172533  0.62579744    -0.13800
F1061       F  0.89202373  0.81005396  0.53751548    -0.16100
F1062       F  0.91188698  0.80233889  0.65932477    -0.14700
F1063       F  0.91039933  0.69409731  0.65605505    -0.14700
F1064       F  0.78719998  0.70941738  0.64834734    -0.16100
loop_ 
_geom_bond_atom_site_label_1 
_geom_bond_atom_site_label_2 
_geom_bond_distance 
_geom_bond_site_symmetry_2 
_ccdc_geom_bond_type 
C1           N19   1.349       .  A
C1           C38   1.458       .  S
C1          C158   1.472       .  S
N2           N19   1.323       .  A
N2           N24   1.319       .  A
N2          Co39   2.077   1_565  S
C3           N28   1.338       .  A
C3           C41   1.463       .  S
C3           H48   1.080       .  S
H4           C45   1.081       .  S
C5           N29   1.341       .  A
C5            C9   1.463       .  S
C5           H34   1.081       .  S
Co6          N14   2.079   1_545  S
Co6          N22   2.083       .  S
Co6         N556   2.079   1_545  S
Co6         N578   2.079       .  S
Co6        Cl582   2.448       .  S
N7           C45   1.340       .  A
N7           N14   1.319       .  A
N7         Co274   2.085   1_564  S
Co8          N11   2.071   1_545  S
Co8          N15   2.086       .  S
Co8         N273   2.085   1_545  S
Co8         N294   2.074       .  S
Co8        Cl848   2.446       .  S
C9           N47   1.348       .  A
C9          C191   1.477       .  S
N10          N17   1.320       .  A
N10          N40   1.323       .  A
N10         Co43   2.079   1_565  S
N11          N29   1.318       .  A
N11          N47   1.322       .  A
N12          C41   1.352       .  A
N12          N22   1.324       .  A
H13          C38   1.082       .  S
N14          N35   1.323       .  A
N15          N33   1.320       .  A
N15          N20   1.324       .  A
C16          N20   1.350       .  A
C16          C44   1.461       .  S
C16         C218   1.477       .  S
N17          C32   1.340       .  A
N17        Co305   2.086   1_565  S
C18          N46   1.339       .  A
C18          C21   1.463       .  S
C18          H52   1.081       .  S
C21          N42   1.350       .  A
C21         C118   1.480       .  S
N22          N28   1.318       .  A
N23          C49   1.338       .  A
N23          N25   1.319       .  A
N23        Co305   2.072       .  S
N24          C38   1.340       .  A
N24        Co538   2.079   1_465  S
N25          N53   1.323       .  A
N25         Co43   2.078       .  S
H26          C49   1.081       .  S
H27          C44   1.082       .  S
N28        Co274   2.075   1_554  S
N29        Co575   2.081   1_565  S
N30          N42   1.322       .  A
N30          N46   1.319       .  A
N30         Co39   2.082       .  S
C31          N35   1.350       .  A
C31          C45   1.465       .  S
C31         C258   1.483       .  S
C32          C51   1.463       .  S
C32          H36   1.081       .  S
N33          C44   1.342       .  A
N33        Co575   2.087       .  S
C37          N53   1.349       .  A
C37          C49   1.459       .  S
C37         C138   1.473       .  S
Co39        N283   2.086   1_544  S
Co39        N289   2.072   1_554  S
Co39        Cl50   2.448   1_455  S
N40          C51   1.348       .  A
C41         C171   1.482       .  S
Co43        N561   2.081   1_445  S
Co43        N565   2.087   1_455  S
Co43       Cl316   2.447   1_455  S
N46        Co538   2.079   1_455  S
Cl50       Co538   2.448       .  S
Cl50       Co806   2.446   1_554  S
Cl50       Co309   2.447   1_654  S
C51         C231   1.474       .  S
C54          N72   1.350       .  A
C54          C91   1.463       .  S
C54         C251   1.480       .  S
N55          N72   1.323       .  A
N55          N77   1.319       .  A
N55         Co92   2.082       .  S
C56          N81   1.340       .  A
C56          C94   1.460       .  S
C56         H101   1.081       .  S
H57          C98   1.081       .  S
C58          N82   1.339       .  A
C58          C62   1.463       .  S
C58          H87   1.081       .  S
Co59         N77   2.081       .  S
Co59         N67   2.078       .  S
Co59         N99   2.075       .  S
Co59         N75   2.083       .  S
Co59       Cl103   2.448       .  S
N60          C98   1.338       .  A
N60          N67   1.318       .  A
N60         Co61   2.077       .  S
Co61         N64   2.080       .  S
Co61         N81   2.080       .  S
Co61         N68   2.081       .  S
Co61       Cl103   2.449       .  S
C62         N100   1.350       .  A
C62         C238   1.479       .  S
N63          N70   1.319       .  A
N63          N93   1.323       .  A
N63         Co96   2.074       .  S
N64          N82   1.319       .  A
N64         N100   1.324       .  A
N65          C94   1.349       .  A
N65          N75   1.323       .  A
H66          C91   1.081       .  S
N67          N88   1.323       .  A
N68          N86   1.318       .  A
N68          N73   1.324       .  A
C69          N73   1.352       .  A
C69          C97   1.460       .  S
C69         C131   1.479       .  S
N70          C85   1.341       .  A
N70         Co92   2.086       .  S
C71          N99   1.338       .  A
C71          C74   1.457       .  S
C71         H105   1.081       .  S
C74          N95   1.351       .  A
C74         C178   1.473       .  S
N75          N81   1.320       .  A
N76         C102   1.340       .  A
N76          N78   1.319       .  A
N76         Co92   2.081       .  S
N77          C91   1.339       .  A
N78         N106   1.325       .  A
N78         Co96   2.088       .  S
H79         C102   1.081       .  S
H80          C97   1.080       .  S
N82         Co96   2.083       .  S
N83          N95   1.325       .  A
N83          N99   1.319       .  A
N83         Co92   2.087       .  S
C84          N88   1.351       .  A
C84          C98   1.462       .  S
C84         C151   1.480       .  S
C85         C104   1.463       .  S
C85          H89   1.081       .  S
N86          C97   1.334       .  A
N86         Co96   2.068       .  S
C90         N106   1.352       .  A
C90         C102   1.463       .  S
C90         C211   1.485       .  S
Co92       Cl103   2.448       .  S
N93         C104   1.349       .  A
C94         C111   1.474       .  S
Co96       Cl103   2.446       .  S
C104        C198   1.479       .  S
C107        C108   1.404       .  A
C107        C112   1.398       .  A
C107        F125   1.358       .  S
C108        C113   1.476       .  S
C108        C109   1.403       .  A
C109        C110   1.397       .  A
C109        F114   1.358       .  S
C110        C111   1.407       .  A
C110        F126   1.358       .  S
C111        C112   1.406       .  A
C112        F115   1.358       .  S
C113        C116   1.403       .  A
C113        C120   1.402       .  A
C116        C117   1.398       .  A
C116        F121   1.358       .  S
C117        C118   1.409       .  A
C117        F123   1.357       .  S
C118        C119   1.410       .  A
C119        C120   1.396       .  A
C119        F122   1.358       .  S
C120        F124   1.358       .  S
C127        C128   1.402       .  A
C127        C132   1.393       .  A
C127        F145   1.358       .  S
C128        C133   1.476       .  S
C128        C129   1.405       .  A
C129        C130   1.398       .  A
C129        F134   1.358       .  S
C130        C131   1.410       .  A
C130        F146   1.358       .  S
C131        C132   1.409       .  A
C132        F135   1.356       .  S
C133        C136   1.405       .  A
C133        C140   1.404       .  A
C136        C137   1.395       .  A
C136        F141   1.358       .  S
C137        C138   1.406       .  A
C137        F143   1.357       .  S
C138        C139   1.408       .  A
C139        C140   1.397       .  A
C139        F142   1.358       .  S
C140        F144   1.358       .  S
C147        C148   1.403       .  A
C147        C152   1.397       .  A
C147        F165   1.358       .  S
C148        C153   1.475       .  S
C148        C149   1.402       .  A
C149        C150   1.396       .  A
C149        F154   1.358       .  S
C150        C151   1.409       .  A
C150        F166   1.356       .  S
C151        C152   1.410       .  A
C152        F155   1.358       .  S
C153        C156   1.405       .  A
C153        C160   1.404       .  A
C156        C157   1.397       .  A
C156        F161   1.358       .  S
C157        C158   1.405       .  A
C157        F163   1.358       .  S
C158        C159   1.407       .  A
C159        C160   1.397       .  A
C159        F162   1.358       .  S
C160        F164   1.358       .  S
C167        C168   1.403       .  A
C167        C172   1.397       .  A
C167        F185   1.358       .  S
C168        C173   1.480       .  S
C168        C169   1.405       .  A
C169        C170   1.398       .  A
C169        F174   1.358       .  S
C170        C171   1.409       .  A
C170        F186   1.358       .  S
C171        C172   1.411       .  A
C172        F175   1.356       .  S
C173        C176   1.406       .  A
C173        C180   1.405       .  A
C176        C177   1.399       .  A
C176        F181   1.358       .  S
C177        C178   1.404       .  A
C177        F183   1.358       .  S
C178        C179   1.407       .  A
C179        C180   1.397       .  A
C179        F182   1.358       .  S
C180        F184   1.358       .  S
C187        C188   1.405       .  A
C187        C192   1.398       .  A
C187        F205   1.358       .  S
C188        C193   1.479       .  S
C188        C189   1.404       .  A
C189        C190   1.396       .  A
C189        F194   1.358       .  S
C190        C191   1.409       .  A
C190        F206   1.358       .  S
C191        C192   1.407       .  A
C192        F195   1.357       .  S
C193        C196   1.404       .  A
C193        C200   1.404       .  A
C196        C197   1.398       .  A
C196        F201   1.358       .  S
C197        C198   1.410       .  A
C197        F203   1.358       .  S
C198        C199   1.407       .  A
C199        C200   1.397       .  A
C199        F202   1.357       .  S
C200        F204   1.358       .  S
C207        C208   1.403       .  A
C207        C212   1.399       .  A
C207        F225   1.358       .  S
C208        C213   1.479       .  S
C208        C209   1.403       .  A
C209        C210   1.400       .  A
C209        F214   1.358       .  S
C210        C211   1.410       .  A
C210        F226   1.357       .  S
C211        C212   1.410       .  A
C212        F215   1.358       .  S
C213        C216   1.403       .  A
C213        C220   1.406       .  A
C216        C217   1.398       .  A
C216        F221   1.358       .  S
C217        C218   1.407       .  A
C217        F223   1.358       .  S
C218        C219   1.407       .  A
C219        C220   1.402       .  A
C219        F222   1.358       .  S
C220        F224   1.358       .  S
C227        C228   1.405       .  A
C227        C232   1.396       .  A
C227        F245   1.358       .  S
C228        C233   1.478       .  S
C228        C229   1.405       .  A
C229        C230   1.399       .  A
C229        F234   1.358       .  S
C230        C231   1.407       .  A
C230        F246   1.358       .  S
C231        C232   1.406       .  A
C232        F235   1.357       .  S
C233        C236   1.403       .  A
C233        C240   1.405       .  A
C236        C237   1.395       .  A
C236        F241   1.358       .  S
C237        C238   1.408       .  A
C237        F243   1.356       .  S
C238        C239   1.409       .  A
C239        C240   1.400       .  A
C239        F242   1.358       .  S
C240        F244   1.358       .  S
C247        C248   1.406       .  A
C247        C252   1.399       .  A
C247        F265   1.358       .  S
C248        C253   1.483       .  S
C248        C249   1.406       .  A
C249        C250   1.397       .  A
C249        F254   1.358       .  S
C250        C251   1.407       .  A
C250        F266   1.357       .  S
C251        C252   1.409       .  A
C252        F255   1.358       .  S
C253        C256   1.406       .  A
C253        C260   1.405       .  A
C256        C257   1.398       .  A
C256        F261   1.358       .  S
C257        C258   1.409       .  A
C257        F263   1.356       .  S
C258        C259   1.410       .  A
C259        C260   1.398       .  A
C259        F262   1.358       .  S
C260        F264   1.358       .  S
C267        N285   1.349       .  A
C267        C304   1.458       .  S
C267        C424   1.472       .  S
N268        N285   1.323       .  A
N268        N290   1.319       .  A
N268       Co305   2.077   1_565  S
C269        N294   1.338       .  A
C269        C307   1.463       .  S
C269        H314   1.080       .  S
H270        C311   1.081       .  S
C271        N295   1.341       .  A
C271        C275   1.463       .  S
C271        H300   1.081       .  S
Co272       N822   2.079   1_545  S
Co272       N280   2.079   1_545  S
Co272       N844   2.079       .  S
Co272       N288   2.083       .  S
Co272      Cl848   2.448       .  S
N273        C311   1.340       .  A
N273        N280   1.319       .  A
Co274       N277   2.071   1_545  S
Co274       N281   2.086       .  S
Co274      Cl582   2.446   1_556  S
C275        N313   1.348       .  A
C275        C457   1.477       .  S
N276        N283   1.320       .  A
N276        N306   1.323       .  A
N276       Co309   2.079   1_565  S
N277        N295   1.318       .  A
N277        N313   1.322       .  A
N278        C307   1.352       .  A
N278        N288   1.324       .  A
H279        C304   1.082       .  S
N280        N301   1.323       .  A
N281        N299   1.320       .  A
N281        N286   1.324       .  A
C282        N286   1.350       .  A
C282        C310   1.461       .  S
C282        C484   1.477       .  S
N283        C298   1.340       .  A
C284        N312   1.339       .  A
C284        C287   1.463       .  S
C284        H318   1.081       .  S
C287        N308   1.350       .  A
C287        C384   1.480       .  S
N288        N294   1.318       .  A
N289        C315   1.338       .  A
N289        N291   1.319       .  A
N290        C304   1.340       .  A
N290       Co804   2.079   1_465  S
N291        N319   1.323       .  A
N291       Co309   2.078       .  S
H292        C315   1.081       .  S
H293        C310   1.082       .  S
N295       Co841   2.081   1_565  S
N296        N308   1.322       .  A
N296        N312   1.319       .  A
N296       Co305   2.082       .  S
C297        N301   1.350       .  A
C297        C311   1.465       .  S
C297        C524   1.483       .  S
C298        C317   1.463       .  S
C298        H302   1.081       .  S
N299        C310   1.342       .  A
N299       Co841   2.087       .  S
C303        N319   1.349       .  A
C303        C315   1.459       .  S
C303        C404   1.473       .  S
Co305      Cl316   2.448   1_455  S
N306        C317   1.348       .  A
C307        C437   1.482       .  S
Co309       N827   2.081   1_445  S
Co309       N831   2.087   1_455  S
N312       Co804   2.079   1_455  S
Cl316      Co804   2.448       .  S
Cl316      Co540   2.446       .  S
C317        C497   1.474       .  S
C320        N338   1.350       .  A
C320        C357   1.463       .  S
C320        C517   1.480       .  S
N321        N338   1.323       .  A
N321        N343   1.319       .  A
N321       Co358   2.082       .  S
C322        N347   1.340       .  A
C322        C360   1.460       .  S
C322        H367   1.081       .  S
H323        C364   1.081       .  S
C324        N348   1.339       .  A
C324        C328   1.463       .  S
C324        H353   1.081       .  S
Co325       N343   2.081       .  S
Co325       N333   2.077       .  S
Co325       N365   2.075       .  S
Co325       N341   2.083       .  S
Co325      Cl369   2.448       .  S
N326        C364   1.338       .  A
N326        N333   1.318       .  A
N326       Co327   2.077       .  S
Co327       N330   2.080       .  S
Co327       N347   2.080       .  S
Co327       N334   2.081       .  S
Co327      Cl369   2.449       .  S
C328        N366   1.350       .  A
C328        C504   1.479       .  S
N329        N336   1.319       .  A
N329        N359   1.323       .  A
N329       Co362   2.074       .  S
N330        N348   1.319       .  A
N330        N366   1.324       .  A
N331        C360   1.349       .  A
N331        N341   1.323       .  A
H332        C357   1.081       .  S
N333        N354   1.323       .  A
N334        N352   1.318       .  A
N334        N339   1.324       .  A
C335        N339   1.352       .  A
C335        C363   1.460       .  S
C335        C397   1.479       .  S
N336        C351   1.341       .  A
N336       Co358   2.086       .  S
C337        N365   1.338       .  A
C337        C340   1.457       .  S
C337        H371   1.081       .  S
C340        N361   1.351       .  A
C340        C444   1.473       .  S
N341        N347   1.320       .  A
N342        C368   1.340       .  A
N342        N344   1.319       .  A
N342       Co358   2.081       .  S
N343        C357   1.339       .  A
N344        N372   1.325       .  A
N344       Co362   2.088       .  S
H345        C368   1.081       .  S
H346        C363   1.080       .  S
N348       Co362   2.084       .  S
N349        N361   1.325       .  A
N349        N365   1.319       .  A
N349       Co358   2.087       .  S
C350        N354   1.351       .  A
C350        C364   1.462       .  S
C350        C417   1.480       .  S
C351        C370   1.463       .  S
C351        H355   1.081       .  S
N352        C363   1.334       .  A
N352       Co362   2.068       .  S
C356        N372   1.352       .  A
C356        C368   1.463       .  S
C356        C477   1.485       .  S
Co358      Cl369   2.448       .  S
N359        C370   1.349       .  A
C360        C377   1.474       .  S
Co362      Cl369   2.446       .  S
C370        C464   1.479       .  S
C373        C374   1.404       .  A
C373        C378   1.398       .  A
C373        F391   1.358       .  S
C374        C379   1.476       .  S
C374        C375   1.403       .  A
C375        C376   1.397       .  A
C375        F380   1.358       .  S
C376        C377   1.407       .  A
C376        F392   1.358       .  S
C377        C378   1.406       .  A
C378        F381   1.358       .  S
C379        C382   1.403       .  A
C379        C386   1.402       .  A
C382        C383   1.398       .  A
C382        F387   1.358       .  S
C383        C384   1.409       .  A
C383        F389   1.357       .  S
C384        C385   1.410       .  A
C385        C386   1.396       .  A
C385        F388   1.358       .  S
C386        F390   1.358       .  S
C393        C394   1.402       .  A
C393        C398   1.393       .  A
C393        F411   1.358       .  S
C394        C399   1.476       .  S
C394        C395   1.405       .  A
C395        C396   1.398       .  A
C395        F400   1.358       .  S
C396        C397   1.410       .  A
C396        F412   1.358       .  S
C397        C398   1.409       .  A
C398        F401   1.356       .  S
C399        C402   1.405       .  A
C399        C406   1.404       .  A
C402        C403   1.395       .  A
C402        F407   1.358       .  S
C403        C404   1.406       .  A
C403        F409   1.357       .  S
C404        C405   1.408       .  A
C405        C406   1.397       .  A
C405        F408   1.358       .  S
C406        F410   1.358       .  S
C413        C414   1.403       .  A
C413        C418   1.397       .  A
C413        F431   1.358       .  S
C414        C419   1.475       .  S
C414        C415   1.402       .  A
C415        C416   1.396       .  A
C415        F420   1.358       .  S
C416        C417   1.409       .  A
C416        F432   1.356       .  S
C417        C418   1.410       .  A
C418        F421   1.358       .  S
C419        C422   1.405       .  A
C419        C426   1.404       .  A
C422        C423   1.397       .  A
C422        F427   1.358       .  S
C423        C424   1.405       .  A
C423        F429   1.358       .  S
C424        C425   1.407       .  A
C425        C426   1.397       .  A
C425        F428   1.358       .  S
C426        F430   1.358       .  S
C433        C434   1.403       .  A
C433        C438   1.397       .  A
C433        F451   1.358       .  S
C434        C439   1.480       .  S
C434        C435   1.405       .  A
C435        C436   1.398       .  A
C435        F440   1.358       .  S
C436        C437   1.409       .  A
C436        F452   1.358       .  S
C437        C438   1.411       .  A
C438        F441   1.356       .  S
C439        C442   1.406       .  A
C439        C446   1.405       .  A
C442        C443   1.399       .  A
C442        F447   1.358       .  S
C443        C444   1.404       .  A
C443        F449   1.358       .  S
C444        C445   1.407       .  A
C445        C446   1.397       .  A
C445        F448   1.358       .  S
C446        F450   1.358       .  S
C453        C454   1.405       .  A
C453        C458   1.398       .  A
C453        F471   1.358       .  S
C454        C459   1.479       .  S
C454        C455   1.404       .  A
C455        C456   1.396       .  A
C455        F460   1.358       .  S
C456        C457   1.409       .  A
C456        F472   1.358       .  S
C457        C458   1.407       .  A
C458        F461   1.357       .  S
C459        C462   1.404       .  A
C459        C466   1.404       .  A
C462        C463   1.398       .  A
C462        F467   1.358       .  S
C463        C464   1.410       .  A
C463        F469   1.358       .  S
C464        C465   1.407       .  A
C465        C466   1.397       .  A
C465        F468   1.357       .  S
C466        F470   1.358       .  S
C473        C474   1.403       .  A
C473        C478   1.399       .  A
C473        F491   1.358       .  S
C474        C479   1.479       .  S
C474        C475   1.403       .  A
C475        C476   1.400       .  A
C475        F480   1.358       .  S
C476        C477   1.410       .  A
C476        F492   1.357       .  S
C477        C478   1.410       .  A
C478        F481   1.358       .  S
C479        C482   1.403       .  A
C479        C486   1.406       .  A
C482        C483   1.398       .  A
C482        F487   1.358       .  S
C483        C484   1.407       .  A
C483        F489   1.358       .  S
C484        C485   1.407       .  A
C485        C486   1.402       .  A
C485        F488   1.358       .  S
C486        F490   1.358       .  S
C493        C494   1.405       .  A
C493        C498   1.396       .  A
C493        F511   1.358       .  S
C494        C499   1.478       .  S
C494        C495   1.405       .  A
C495        C496   1.399       .  A
C495        F500   1.358       .  S
C496        C497   1.407       .  A
C496        F512   1.358       .  S
C497        C498   1.406       .  A
C498        F501   1.357       .  S
C499        C502   1.403       .  A
C499        C506   1.405       .  A
C502        C503   1.395       .  A
C502        F507   1.358       .  S
C503        C504   1.408       .  A
C503        F509   1.356       .  S
C504        C505   1.409       .  A
C505        C506   1.400       .  A
C505        F508   1.358       .  S
C506        F510   1.358       .  S
C513        C514   1.406       .  A
C513        C518   1.399       .  A
C513        F531   1.358       .  S
C514        C519   1.483       .  S
C514        C515   1.406       .  A
C515        C516   1.397       .  A
C515        F520   1.358       .  S
C516        C517   1.407       .  A
C516        F532   1.357       .  S
C517        C518   1.409       .  A
C518        F521   1.358       .  S
C519        C522   1.406       .  A
C519        C526   1.405       .  A
C522        C523   1.398       .  A
C522        F527   1.358       .  S
C523        C524   1.409       .  A
C523        F529   1.356       .  S
C524        C525   1.410       .  A
C525        C526   1.398       .  A
C525        F528   1.358       .  S
C526        F530   1.358       .  S
C533        N551   1.349       .  A
C533        C570   1.458       .  S
C533        C690   1.472       .  S
N534        N551   1.323       .  A
N534        N556   1.319       .  A
N534       Co571   2.077   1_565  S
C535        N560   1.338       .  A
C535        C573   1.463       .  S
C535        H580   1.080       .  S
H536        C577   1.081       .  S
C537        N561   1.341       .  A
C537        C541   1.463       .  S
C537        H566   1.081       .  S
Co538       N546   2.079   1_545  S
Co538       N554   2.083       .  S
N539        C577   1.340       .  A
N539        N546   1.319       .  A
N539       Co806   2.085   1_564  S
Co540       N805   2.085   1_545  S
Co540       N543   2.071   1_545  S
Co540       N826   2.074       .  S
Co540       N547   2.086       .  S
C541        N579   1.348       .  A
C541        C723   1.477       .  S
N542        N549   1.320       .  A
N542        N572   1.323       .  A
N542       Co575   2.079   1_565  S
N543        N561   1.318       .  A
N543        N579   1.322       .  A
N544        C573   1.352       .  A
N544        N554   1.324       .  A
H545        C570   1.082       .  S
N546        N567   1.323       .  A
N547        N565   1.320       .  A
N547        N552   1.324       .  A
C548        N552   1.350       .  A
C548        C576   1.461       .  S
C548        C750   1.477       .  S
N549        C564   1.340       .  A
N549       Co837   2.086   1_565  S
C550        N578   1.339       .  A
C550        C553   1.463       .  S
C550        H584   1.081       .  S
C553        N574   1.350       .  A
C553        C650   1.479       .  S
N554        N560   1.318       .  A
N555        C581   1.338       .  A
N555        N557   1.319       .  A
N555       Co837   2.072       .  S
N556        C570   1.340       .  A
N557        N585   1.323       .  A
N557       Co575   2.078       .  S
H558        C581   1.081       .  S
H559        C576   1.082       .  S
N560       Co806   2.074   1_554  S
N562        N574   1.322       .  A
N562        N578   1.319       .  A
N562       Co571   2.082       .  S
C563        N567   1.350       .  A
C563        C577   1.465       .  S
C563        C790   1.483       .  S
C564        C583   1.463       .  S
C564        H568   1.081       .  S
N565        C576   1.342       .  A
C569        N585   1.349       .  A
C569        C581   1.459       .  S
C569        C670   1.473       .  S
Co571       N815   2.086   1_544  S
Co571       N821   2.072   1_554  S
Co571      Cl582   2.448       .  S
N572        C583   1.348       .  A
C573        C703   1.482       .  S
Co575      Cl848   2.447       .  S
Cl582      Co841   2.447   1_554  S
C583        C763   1.474       .  S
C586        N604   1.350       .  A
C586        C623   1.463       .  S
C586        C783   1.480       .  S
N587        N604   1.323       .  A
N587        N609   1.319       .  A
N587       Co624   2.082       .  S
C588        N613   1.340       .  A
C588        C626   1.460       .  S
C588        H633   1.081       .  S
H589        C630   1.081       .  S
C590        N614   1.339       .  A
C590        C594   1.463       .  S
C590        H619   1.081       .  S
Co591       N609   2.081       .  S
Co591       N599   2.077       .  S
Co591       N631   2.075       .  S
Co591       N607   2.083       .  S
Co591      Cl635   2.448       .  S
N592        C630   1.338       .  A
N592        N599   1.318       .  A
N592       Co593   2.077       .  S
Co593       N596   2.080       .  S
Co593       N613   2.080       .  S
Co593       N600   2.081       .  S
Co593      Cl635   2.449       .  S
C594        N632   1.350       .  A
C594        C770   1.479       .  S
N595        N602   1.319       .  A
N595        N625   1.323       .  A
N595       Co628   2.074       .  S
N596        N614   1.319       .  A
N596        N632   1.324       .  A
N597        C626   1.349       .  A
N597        N607   1.323       .  A
H598        C623   1.081       .  S
N599        N620   1.323       .  A
N600        N618   1.318       .  A
N600        N605   1.324       .  A
C601        N605   1.352       .  A
C601        C629   1.460       .  S
C601        C663   1.479       .  S
N602        C617   1.341       .  A
N602       Co624   2.086       .  S
C603        N631   1.338       .  A
C603        C606   1.457       .  S
C603        H637   1.081       .  S
C606        N627   1.351       .  A
C606        C710   1.473       .  S
N607        N613   1.320       .  A
N608        C634   1.340       .  A
N608        N610   1.319       .  A
N608       Co624   2.081       .  S
N609        C623   1.339       .  A
N610        N638   1.325       .  A
N610       Co628   2.088       .  S
H611        C634   1.081       .  S
H612        C629   1.080       .  S
N614       Co628   2.083       .  S
N615        N627   1.325       .  A
N615        N631   1.319       .  A
N615       Co624   2.087       .  S
C616        N620   1.351       .  A
C616        C630   1.462       .  S
C616        C683   1.480       .  S
C617        C636   1.464       .  S
C617        H621   1.081       .  S
N618        C629   1.334       .  A
N618       Co628   2.068       .  S
C622        N638   1.352       .  A
C622        C634   1.463       .  S
C622        C743   1.485       .  S
Co624      Cl635   2.448       .  S
N625        C636   1.349       .  A
C626        C643   1.474       .  S
Co628      Cl635   2.446       .  S
C636        C730   1.479       .  S
C639        C640   1.404       .  A
C639        C644   1.398       .  A
C639        F657   1.358       .  S
C640        C645   1.476       .  S
C640        C641   1.403       .  A
C641        C642   1.397       .  A
C641        F646   1.358       .  S
C642        C643   1.407       .  A
C642        F658   1.358       .  S
C643        C644   1.406       .  A
C644        F647   1.358       .  S
C645        C648   1.403       .  A
C645        C652   1.402       .  A
C648        C649   1.398       .  A
C648        F653   1.358       .  S
C649        C650   1.409       .  A
C649        F655   1.357       .  S
C650        C651   1.410       .  A
C651        C652   1.396       .  A
C651        F654   1.358       .  S
C652        F656   1.358       .  S
C659        C660   1.402       .  A
C659        C664   1.393       .  A
C659        F677   1.358       .  S
C660        C665   1.476       .  S
C660        C661   1.405       .  A
C661        C662   1.398       .  A
C661        F666   1.358       .  S
C662        C663   1.410       .  A
C662        F678   1.358       .  S
C663        C664   1.409       .  A
C664        F667   1.356       .  S
C665        C668   1.405       .  A
C665        C672   1.404       .  A
C668        C669   1.395       .  A
C668        F673   1.358       .  S
C669        C670   1.406       .  A
C669        F675   1.357       .  S
C670        C671   1.408       .  A
C671        C672   1.397       .  A
C671        F674   1.358       .  S
C672        F676   1.358       .  S
C679        C680   1.403       .  A
C679        C684   1.397       .  A
C679        F697   1.358       .  S
C680        C685   1.475       .  S
C680        C681   1.402       .  A
C681        C682   1.396       .  A
C681        F686   1.358       .  S
C682        C683   1.409       .  A
C682        F698   1.356       .  S
C683        C684   1.410       .  A
C684        F687   1.358       .  S
C685        C688   1.405       .  A
C685        C692   1.404       .  A
C688        C689   1.397       .  A
C688        F693   1.358       .  S
C689        C690   1.405       .  A
C689        F695   1.358       .  S
C690        C691   1.407       .  A
C691        C692   1.397       .  A
C691        F694   1.358       .  S
C692        F696   1.358       .  S
C699        C700   1.403       .  A
C699        C704   1.397       .  A
C699        F717   1.358       .  S
C700        C705   1.480       .  S
C700        C701   1.405       .  A
C701        C702   1.398       .  A
C701        F706   1.358       .  S
C702        C703   1.409       .  A
C702        F718   1.358       .  S
C703        C704   1.411       .  A
C704        F707   1.356       .  S
C705        C708   1.406       .  A
C705        C712   1.405       .  A
C708        C709   1.399       .  A
C708        F713   1.358       .  S
C709        C710   1.404       .  A
C709        F715   1.358       .  S
C710        C711   1.407       .  A
C711        C712   1.397       .  A
C711        F714   1.358       .  S
C712        F716   1.358       .  S
C719        C720   1.405       .  A
C719        C724   1.398       .  A
C719        F737   1.358       .  S
C720        C725   1.479       .  S
C720        C721   1.404       .  A
C721        C722   1.396       .  A
C721        F726   1.358       .  S
C722        C723   1.409       .  A
C722        F738   1.358       .  S
C723        C724   1.407       .  A
C724        F727   1.357       .  S
C725        C728   1.404       .  A
C725        C732   1.404       .  A
C728        C729   1.398       .  A
C728        F733   1.358       .  S
C729        C730   1.410       .  A
C729        F735   1.358       .  S
C730        C731   1.407       .  A
C731        C732   1.397       .  A
C731        F734   1.357       .  S
C732        F736   1.358       .  S
C739        C740   1.403       .  A
C739        C744   1.399       .  A
C739        F757   1.358       .  S
C740        C745   1.479       .  S
C740        C741   1.403       .  A
C741        C742   1.400       .  A
C741        F746   1.358       .  S
C742        C743   1.410       .  A
C742        F758   1.357       .  S
C743        C744   1.410       .  A
C744        F747   1.358       .  S
C745        C748   1.403       .  A
C745        C752   1.406       .  A
C748        C749   1.398       .  A
C748        F753   1.358       .  S
C749        C750   1.407       .  A
C749        F755   1.358       .  S
C750        C751   1.407       .  A
C751        C752   1.402       .  A
C751        F754   1.358       .  S
C752        F756   1.358       .  S
C759        C760   1.405       .  A
C759        C764   1.396       .  A
C759        F777   1.358       .  S
C760        C765   1.478       .  S
C760        C761   1.405       .  A
C761        C762   1.399       .  A
C761        F766   1.358       .  S
C762        C763   1.407       .  A
C762        F778   1.358       .  S
C763        C764   1.406       .  A
C764        F767   1.357       .  S
C765        C768   1.403       .  A
C765        C772   1.405       .  A
C768        C769   1.395       .  A
C768        F773   1.358       .  S
C769        C770   1.408       .  A
C769        F775   1.356       .  S
C770        C771   1.409       .  A
C771        C772   1.400       .  A
C771        F774   1.358       .  S
C772        F776   1.358       .  S
C779        C780   1.406       .  A
C779        C784   1.399       .  A
C779        F797   1.358       .  S
C780        C785   1.483       .  S
C780        C781   1.406       .  A
C781        C782   1.397       .  A
C781        F786   1.358       .  S
C782        C783   1.407       .  A
C782        F798   1.357       .  S
C783        C784   1.409       .  A
C784        F787   1.358       .  S
C785        C788   1.406       .  A
C785        C792   1.405       .  A
C788        C789   1.398       .  A
C788        F793   1.358       .  S
C789        C790   1.409       .  A
C789        F795   1.356       .  S
C790        C791   1.410       .  A
C791        C792   1.398       .  A
C791        F794   1.358       .  S
C792        F796   1.358       .  S
C799        N817   1.349       .  A
C799        C836   1.458       .  S
C799        C956   1.472       .  S
N800        N817   1.323       .  A
N800        N822   1.319       .  A
N800       Co837   2.077   1_565  S
C801        N826   1.338       .  A
C801        C839   1.463       .  S
C801        H846   1.080       .  S
H802        C843   1.081       .  S
C803        N827   1.341       .  A
C803        C807   1.463       .  S
C803        H832   1.081       .  S
Co804       N812   2.079   1_545  S
Co804       N820   2.083       .  S
N805        C843   1.340       .  A
N805        N812   1.319       .  A
Co806       N809   2.071   1_545  S
Co806       N813   2.086       .  S
C807        N845   1.348       .  A
C807        C989   1.477       .  S
N808        N815   1.320       .  A
N808        N838   1.323       .  A
N808       Co841   2.079   1_565  S
N809        N827   1.318       .  A
N809        N845   1.322       .  A
N810        C839   1.352       .  A
N810        N820   1.324       .  A
H811        C836   1.082       .  S
N812        N833   1.323       .  A
N813        N831   1.320       .  A
N813        N818   1.324       .  A
C814        N818   1.350       .  A
C814        C842   1.461       .  S
C814       C1016   1.477       .  S
N815        C830   1.340       .  A
C816        N844   1.339       .  A
C816        C819   1.463       .  S
C816        H850   1.081       .  S
C819        N840   1.350       .  A
C819        C916   1.479       .  S
N820        N826   1.318       .  A
N821        C847   1.338       .  A
N821        N823   1.319       .  A
N822        C836   1.340       .  A
N823        N851   1.323       .  A
N823       Co841   2.078       .  S
H824        C847   1.081       .  S
H825        C842   1.082       .  S
N828        N840   1.322       .  A
N828        N844   1.319       .  A
N828       Co837   2.082       .  S
C829        N833   1.350       .  A
C829        C843   1.465       .  S
C829       C1056   1.483       .  S
C830        C849   1.463       .  S
C830        H834   1.081       .  S
N831        C842   1.342       .  A
C835        N851   1.349       .  A
C835        C847   1.459       .  S
C835        C936   1.473       .  S
Co837      Cl848   2.448       .  S
N838        C849   1.348       .  A
C839        C969   1.482       .  S
C849       C1029   1.474       .  S
C852        N870   1.350       .  A
C852        C889   1.463       .  S
C852       C1049   1.480       .  S
N853        N870   1.323       .  A
N853        N875   1.319       .  A
N853       Co890   2.082       .  S
C854        N879   1.340       .  A
C854        C892   1.460       .  S
C854        H899   1.081       .  S
H855        C896   1.081       .  S
C856        N880   1.339       .  A
C856        C860   1.463       .  S
C856        H885   1.081       .  S
Co857       N875   2.081       .  S
Co857       N865   2.078       .  S
Co857       N897   2.075       .  S
Co857       N873   2.083       .  S
Co857      Cl901   2.448       .  S
N858        C896   1.338       .  A
N858        N865   1.318       .  A
N858       Co859   2.077       .  S
Co859       N862   2.080       .  S
Co859       N879   2.080       .  S
Co859       N866   2.081       .  S
Co859      Cl901   2.449       .  S
C860        N898   1.350       .  A
C860       C1036   1.479       .  S
N861        N868   1.319       .  A
N861        N891   1.323       .  A
N861       Co894   2.074       .  S
N862        N880   1.319       .  A
N862        N898   1.324       .  A
N863        C892   1.349       .  A
N863        N873   1.323       .  A
H864        C889   1.081       .  S
N865        N886   1.323       .  A
N866        N884   1.318       .  A
N866        N871   1.324       .  A
C867        N871   1.352       .  A
C867        C895   1.460       .  S
C867        C929   1.479       .  S
N868        C883   1.341       .  A
N868       Co890   2.086       .  S
C869        N897   1.338       .  A
C869        C872   1.457       .  S
C869        H903   1.081       .  S
C872        N893   1.351       .  A
C872        C976   1.473       .  S
N873        N879   1.320       .  A
N874        C900   1.340       .  A
N874        N876   1.319       .  A
N874       Co890   2.081       .  S
N875        C889   1.339       .  A
N876        N904   1.325       .  A
N876       Co894   2.088       .  S
H877        C900   1.081       .  S
H878        C895   1.080       .  S
N880       Co894   2.083       .  S
N881        N893   1.325       .  A
N881        N897   1.319       .  A
N881       Co890   2.087       .  S
C882        N886   1.351       .  A
C882        C896   1.462       .  S
C882        C949   1.480       .  S
C883        C902   1.464       .  S
C883        H887   1.081       .  S
N884        C895   1.334       .  A
N884       Co894   2.068       .  S
C888        N904   1.352       .  A
C888        C900   1.463       .  S
C888       C1009   1.485       .  S
Co890      Cl901   2.448       .  S
N891        C902   1.349       .  A
C892        C909   1.474       .  S
Co894      Cl901   2.446       .  S
C902        C996   1.479       .  S
C905        C906   1.404       .  A
C905        C910   1.398       .  A
C905        F923   1.358       .  S
C906        C911   1.476       .  S
C906        C907   1.403       .  A
C907        C908   1.397       .  A
C907        F912   1.358       .  S
C908        C909   1.407       .  A
C908        F924   1.358       .  S
C909        C910   1.406       .  A
C910        F913   1.358       .  S
C911        C914   1.403       .  A
C911        C918   1.402       .  A
C914        C915   1.398       .  A
C914        F919   1.358       .  S
C915        C916   1.409       .  A
C915        F921   1.357       .  S
C916        C917   1.410       .  A
C917        C918   1.396       .  A
C917        F920   1.358       .  S
C918        F922   1.358       .  S
C925        C926   1.402       .  A
C925        C930   1.393       .  A
C925        F943   1.358       .  S
C926        C931   1.476       .  S
C926        C927   1.405       .  A
C927        C928   1.398       .  A
C927        F932   1.358       .  S
C928        C929   1.410       .  A
C928        F944   1.358       .  S
C929        C930   1.409       .  A
C930        F933   1.356       .  S
C931        C934   1.405       .  A
C931        C938   1.404       .  A
C934        C935   1.395       .  A
C934        F939   1.358       .  S
C935        C936   1.406       .  A
C935        F941   1.357       .  S
C936        C937   1.408       .  A
C937        C938   1.397       .  A
C937        F940   1.358       .  S
C938        F942   1.358       .  S
C945        C946   1.403       .  A
C945        C950   1.397       .  A
C945        F963   1.358       .  S
C946        C951   1.475       .  S
C946        C947   1.402       .  A
C947        C948   1.396       .  A
C947        F952   1.358       .  S
C948        C949   1.409       .  A
C948        F964   1.356       .  S
C949        C950   1.410       .  A
C950        F953   1.358       .  S
C951        C954   1.405       .  A
C951        C958   1.404       .  A
C954        C955   1.397       .  A
C954        F959   1.358       .  S
C955        C956   1.405       .  A
C955        F961   1.358       .  S
C956        C957   1.407       .  A
C957        C958   1.397       .  A
C957        F960   1.358       .  S
C958        F962   1.358       .  S
C965        C966   1.403       .  A
C965        C970   1.397       .  A
C965        F983   1.358       .  S
C966        C971   1.480       .  S
C966        C967   1.405       .  A
C967        C968   1.398       .  A
C967        F972   1.358       .  S
C968        C969   1.409       .  A
C968        F984   1.358       .  S
C969        C970   1.411       .  A
C970        F973   1.356       .  S
C971        C974   1.406       .  A
C971        C978   1.405       .  A
C974        C975   1.399       .  A
C974        F979   1.358       .  S
C975        C976   1.404       .  A
C975        F981   1.358       .  S
C976        C977   1.407       .  A
C977        C978   1.397       .  A
C977        F980   1.358       .  S
C978        F982   1.358       .  S
C985        C986   1.405       .  A
C985        C990   1.398       .  A
C985       F1003   1.358       .  S
C986        C991   1.479       .  S
C986        C987   1.404       .  A
C987        C988   1.396       .  A
C987        F992   1.358       .  S
C988        C989   1.409       .  A
C988       F1004   1.358       .  S
C989        C990   1.407       .  A
C990        F993   1.357       .  S
C991        C994   1.404       .  A
C991        C998   1.404       .  A
C994        C995   1.398       .  A
C994        F999   1.358       .  S
C995        C996   1.410       .  A
C995       F1001   1.358       .  S
C996        C997   1.407       .  A
C997        C998   1.397       .  A
C997       F1000   1.357       .  S
C998       F1002   1.358       .  S
C1005      C1006   1.403       .  A
C1005      C1010   1.399       .  A
C1005      F1023   1.358       .  S
C1006      C1011   1.479       .  S
C1006      C1007   1.403       .  A
C1007      C1008   1.400       .  A
C1007      F1012   1.358       .  S
C1008      C1009   1.410       .  A
C1008      F1024   1.357       .  S
C1009      C1010   1.410       .  A
C1010      F1013   1.358       .  S
C1011      C1014   1.403       .  A
C1011      C1018   1.406       .  A
C1014      C1015   1.398       .  A
C1014      F1019   1.358       .  S
C1015      C1016   1.407       .  A
C1015      F1021   1.358       .  S
C1016      C1017   1.407       .  A
C1017      C1018   1.402       .  A
C1017      F1020   1.358       .  S
C1018      F1022   1.358       .  S
C1025      C1026   1.405       .  A
C1025      C1030   1.396       .  A
C1025      F1043   1.358       .  S
C1026      C1031   1.478       .  S
C1026      C1027   1.405       .  A
C1027      C1028   1.399       .  A
C1027      F1032   1.358       .  S
C1028      C1029   1.407       .  A
C1028      F1044   1.358       .  S
C1029      C1030   1.406       .  A
C1030      F1033   1.357       .  S
C1031      C1034   1.403       .  A
C1031      C1038   1.405       .  A
C1034      C1035   1.395       .  A
C1034      F1039   1.358       .  S
C1035      C1036   1.408       .  A
C1035      F1041   1.356       .  S
C1036      C1037   1.409       .  A
C1037      C1038   1.400       .  A
C1037      F1040   1.358       .  S
C1038      F1042   1.358       .  S
C1045      C1046   1.406       .  A
C1045      C1050   1.399       .  A
C1045      F1063   1.358       .  S
C1046      C1051   1.483       .  S
C1046      C1047   1.406       .  A
C1047      C1048   1.397       .  A
C1047      F1052   1.358       .  S
C1048      C1049   1.407       .  A
C1048      F1064   1.357       .  S
C1049      C1050   1.409       .  A
C1050      F1053   1.358       .  S
C1051      C1054   1.406       .  A
C1051      C1058   1.405       .  A
C1054      C1055   1.398       .  A
C1054      F1059   1.358       .  S
C1055      C1056   1.409       .  A
C1055      F1061   1.356       .  S
C1056      C1057   1.410       .  A
C1057      C1058   1.398       .  A
C1057      F1060   1.358       .  S
C1058      F1062   1.358       .  S
