geometry optimzed in LAMMPS
_audit_creation_date              2020-11-30 
_audit_creation_method            'lammps2cif' 
_symmetry_space_group_name_H-M    'P1' 
_symmetry_Int_Tables_number       1 
_symmetry_cell_setting            triclinic 
loop_ 
_symmetry_equiv_pos_as_xyz 
  x,y,z 
_cell_length_a                    45.99042446 
_cell_length_b                    45.958174180504514 
_cell_length_c                    46.018073097316574 
_cell_angle_alpha                 90.1600928236466 
_cell_angle_beta                  90.07328767745867 
_cell_angle_gamma                 89.80197855985851 
loop_ 
_atom_site_label 
_atom_site_type_symbol 
_atom_site_fract_x 
_atom_site_fract_y 
_atom_site_fract_z 
_atom_site_charge 
Fe1        Fe  0.83859759  0.31375265  0.83522294     1.65800
Fe2        Fe  0.88961023  0.28790499  0.88211338     1.73200
Fe3        Fe  0.87743400  0.36199434  0.87674222     1.54400
O4          O  0.88121927  0.37621370  0.83348464    -0.82300
O5          O  0.88579155  0.30465861  0.92337545    -0.80600
O6          O  0.85408358  0.34512146  0.80798156    -0.84800
O7          O  0.80935306  0.34130318  0.85431120    -0.79700
O8          O  0.92200378  0.35537684  0.87599426    -0.81400
O9          O  0.85219158  0.26391893  0.89003369    -0.84200
C10         C  0.81024438  0.36359149  0.87041917     0.96600
C11         C  0.87084708  0.36681849  0.80954837     1.04000
O12         O  0.86854726  0.32124465  0.86478907    -1.13200
O13         O  0.89625785  0.26650460  0.84315204    -0.75600
O14         O  0.86382768  0.28488956  0.81245726    -0.79100
O15         O  0.83383744  0.37457460  0.87958819    -0.79800
C16         C  0.88467737  0.26781584  0.81819486     0.95500
O17         O  0.81971180  0.28100398  0.85850288    -0.77700
O18         O  0.92930177  0.30739827  0.87582948    -0.82900
C19         C  0.87941888  0.32866669  0.93547841     0.98100
C20         C  0.93859916  0.33331418  0.87461231     1.04000
O21         O  0.87525764  0.35192171  0.92099014    -0.78600
C22         C  0.82703481  0.26368310  0.87858706     1.02300
Fe23       Fe  0.69985666  0.15418315  0.83272393     1.65800
Fe24       Fe  0.72217091  0.10886798  0.88678058     1.73200
Fe25       Fe  0.64865071  0.12044512  0.87439123     1.54400
O26         O  0.63888728  0.16502052  0.87661623    -0.82300
O27         O  0.70204748  0.06899245  0.88373195    -0.80600
O28         O  0.67017538  0.18510393  0.84562891    -0.84800
O29         O  0.67130223  0.13539013  0.80430795    -0.79700
O30         O  0.65527502  0.12177325  0.91932411    -0.81400
O31         O  0.74701471  0.09796255  0.85062012    -0.84200
C32         C  0.64666234  0.12352375  0.80641154     0.96600
C33         C  0.64918440  0.18696212  0.86332339     1.04000
O34         O  0.69020667  0.12770857  0.86467163    -1.13200
O35         O  0.74575391  0.14695185  0.89244725    -0.75600
O36         O  0.72983847  0.17601772  0.85714936    -0.79100
O37         O  0.63493121  0.11785437  0.83078308    -0.79800
C38         C  0.74597619  0.17097946  0.87889702     0.95500
O39         O  0.73108362  0.12731442  0.81570990    -0.77700
O40         O  0.70286222  0.11704619  0.92621579    -0.82900
C41         C  0.67673062  0.05905278  0.87891363     0.98100
C42         C  0.67737015  0.12084907  0.93593196     1.04000
O43         O  0.65483042  0.07536981  0.87374920    -0.78600
C44         C  0.74793238  0.10752063  0.82482116     1.02300
Fe45       Fe  0.83984355  0.15970902  0.69159972     1.65800
Fe46       Fe  0.89521526  0.11513719  0.71217874     1.73200
Fe47       Fe  0.87859295  0.12380402  0.63922153     1.54400
O48         O  0.83433017  0.12088535  0.62798824    -0.82300
O49         O  0.93328477  0.12313693  0.69066653    -0.80600
O50         O  0.81033807  0.14029418  0.66518961    -0.84800
O51         O  0.85199173  0.18966718  0.66102281    -0.79700
O52         O  0.87741703  0.07907943  0.64715901    -0.81400
O53         O  0.90182618  0.15403363  0.73425244    -0.84200
C54         C  0.86938463  0.19071070  0.63973398     0.96600
C55         C  0.81083483  0.12677634  0.64134143     1.04000
O56         O  0.87128321  0.13279357  0.68097967    -1.13200
O57         O  0.86045202  0.10474012  0.73867625    -0.75600
O58         O  0.82430112  0.13328974  0.72378498    -0.79100
O59         O  0.88104739  0.16812059  0.62852503    -0.79800
C60         C  0.83441588  0.11364728  0.74021859     0.95500
O61         O  0.86525965  0.18232460  0.71981677    -0.77700
O62         O  0.89076214  0.07448205  0.69376119    -0.82900
C63         C  0.94132559  0.12582931  0.66455785     0.98100
C64         C  0.88259420  0.06368890  0.66963403     1.04000
O65         O  0.92371713  0.12484973  0.64331804    -0.78600
C66         C  0.88796179  0.17796197  0.73469795     1.02300
Fe67       Fe  0.66803194  0.34064329  0.80441990     1.65800
Fe68       Fe  0.61439875  0.38638993  0.78251689     1.73200
Fe69       Fe  0.62618209  0.37463470  0.85600198     1.54400
O70         O  0.62622587  0.32995312  0.86639727    -0.82300
O71         O  0.62014622  0.42636662  0.80160872    -0.80600
O72         O  0.65311854  0.30917568  0.83169178    -0.84800
O73         O  0.69556978  0.35759476  0.83486739    -0.79700
O74         O  0.58168838  0.37092370  0.84934161    -0.81400
O75         O  0.65047499  0.39470346  0.75688457    -0.84200
C76         C  0.69356912  0.37239568  0.85795817     0.96600
C77         C  0.63715181  0.30760096  0.85396211     1.04000
O78         O  0.63611998  0.36726375  0.81439959    -1.13200
O79         O  0.60661175  0.34805307  0.76011686    -0.75600
O80         O  0.64455225  0.32047723  0.77229479    -0.79100
O81         O  0.66938845  0.37992526  0.86897182    -0.79800
C82         C  0.62143050  0.32483344  0.75787432     0.95500
O83         O  0.68666873  0.36863844  0.77554716    -0.77700
O84         O  0.57503044  0.38070475  0.80251315    -0.82900
C85         C  0.62330174  0.43618703  0.82725568     0.98100
C86         C  0.56531682  0.37420464  0.82738173     1.04000
O87         O  0.62472287  0.41978386  0.84957690    -0.78600
C88         C  0.67684902  0.38663444  0.75724114     1.02300
Fe89       Fe  0.81214778  0.34069912  0.66396919     1.65800
Fe90       Fe  0.78889468  0.38526294  0.61016809     1.73200
Fe91       Fe  0.86201903  0.37734928  0.62398216     1.54400
O92         O  0.87482335  0.37873554  0.66813644    -0.82300
O93         O  0.80799040  0.37398377  0.57156549    -0.80600
O94         O  0.83633113  0.36363938  0.69309163    -0.84800
O95         O  0.84581986  0.31283834  0.65385538    -0.79700
O96         O  0.85385881  0.42176129  0.62697731    -0.81400
O97         O  0.76512447  0.34680806  0.60766012    -0.84200
C98         C  0.86478615  0.31127872  0.63397025     0.96600
C99         C  0.86105294  0.37544228  0.69194328     1.04000
O100        O  0.82099664  0.36793737  0.63266886    -1.13200
O101        O  0.76577205  0.39849451  0.64647499    -0.75600
O102        O  0.77718247  0.36427663  0.67868265    -0.79100
O103        O  0.87274612  0.33328221  0.61930643    -0.79800
C104        C  0.76264104  0.38638601  0.67097626     0.95500
O105        O  0.78651387  0.31548230  0.63775250    -0.77700
O106        O  0.80852225  0.42574422  0.60977062    -0.82900
C107        C  0.83387652  0.37479603  0.56219442     0.98100
C108        C  0.83229458  0.43695887  0.61841198     1.04000
O109        O  0.85566713  0.37820500  0.57892907    -0.78600
C110        C  0.76785651  0.32146234  0.61839269     1.02300
Fe111      Fe  0.66563310  0.18654442  0.66123629     1.65800
Fe112      Fe  0.61784150  0.21125688  0.61181297     1.73200
Fe113      Fe  0.62649701  0.13780383  0.62209188     1.54400
O114        O  0.67003158  0.12646645  0.61572235    -0.82300
O115        O  0.57772837  0.19144091  0.61162369    -0.80600
O116        O  0.69141303  0.15152418  0.65110300    -0.84800
O117        O  0.64263876  0.16338406  0.69105734    -0.79700
O118        O  0.62464906  0.14587971  0.57738114    -0.81400
O119        O  0.60569545  0.23175670  0.65028063    -0.84200
C120        C  0.63073235  0.13861253  0.68999097     0.96600
C121        C  0.69220505  0.13295157  0.63082806     1.04000
O122        O  0.63649046  0.17844608  0.63159465    -1.13200
O123        O  0.65573259  0.23574367  0.60980965    -0.75600
O124        O  0.69011282  0.21103659  0.63327034    -0.79100
O125        O  0.62683104  0.12474635  0.66618312    -0.79800
C126        C  0.68205289  0.23229405  0.61761987     0.95500
O127        O  0.64509260  0.22287847  0.67669085    -0.77700
O128        O  0.62818626  0.19396994  0.57189708    -0.82900
C129        C  0.56668384  0.16757198  0.61997023     0.98100
C130        C  0.62801726  0.16834712  0.56155506     1.04000
O131        O  0.58218892  0.14563606  0.62669359    -0.78600
C132        C  0.62110733  0.23579696  0.67281495     1.02300
Fe133      Fe  0.16628714  0.15956716  0.69184112     1.65800
Fe134      Fe  0.11152139  0.11397366  0.71056871     1.73200
Fe135      Fe  0.12858286  0.12446385  0.63824913     1.54400
O136        O  0.12557613  0.16891410  0.62838318    -0.82300
O137        O  0.11276743  0.07428577  0.68971298    -0.80600
O138        O  0.15484988  0.18967989  0.66108086    -0.84800
O139        O  0.19644724  0.14008237  0.66581293    -0.79700
O140        O  0.08339774  0.12452211  0.64239429    -0.81400
O141        O  0.14684448  0.10095954  0.73543059    -0.84200
C142        C  0.19621670  0.12789786  0.64119881     0.96600
C143        C  0.13755445  0.19119306  0.63970232     1.04000
O144        O  0.13547678  0.13253189  0.68021373    -1.13200
O145        O  0.10678615  0.15112863  0.73573211    -0.75600
O146        O  0.14001021  0.18221570  0.71978669    -0.79100
O147        O  0.17286674  0.12260124  0.62736175    -0.79800
C148        C  0.11898706  0.17580606  0.73625149     0.95500
O149        O  0.18114981  0.13328652  0.72452702    -0.77700
O150        O  0.07363045  0.12519549  0.68984185    -0.82900
C151        C  0.12133397  0.06380890  0.66561592     0.98100
C152        C  0.06567095  0.12635934  0.66350057     1.04000
O153        O  0.13019323  0.07959765  0.64472107    -0.78600
C154        C  0.17185748  0.11195705  0.73912221     1.02300
Fe155      Fe  0.30209879  0.16165005  0.83755330     1.65800
Fe156      Fe  0.28179675  0.11226216  0.88848730     1.73200
Fe157      Fe  0.35490482  0.12505967  0.87560766     1.54400
O158        O  0.36618409  0.12178486  0.83155577    -0.82300
O159        O  0.30201022  0.11824842  0.92776951    -0.80600
O160        O  0.33135315  0.14586181  0.80790947    -0.84800
O161        O  0.33061654  0.19216561  0.85321572    -0.79700
O162        O  0.34901201  0.08003007  0.87505142    -0.81400
O163        O  0.25769703  0.14935680  0.89721604    -0.84200
C164        C  0.35393048  0.19243617  0.86788509     0.96600
C165        C  0.35449203  0.13093143  0.80820676     1.04000
O166        O  0.31298595  0.13298308  0.86728742    -1.13200
O167        O  0.25693137  0.10365916  0.85198151    -0.75600
O168        O  0.27204021  0.13485614  0.81839056    -0.79100
O169        O  0.36610451  0.16932971  0.87718785    -0.79800
C170        C  0.25600870  0.11410929  0.82655392     0.95500
O171        O  0.27098213  0.18091860  0.86315136    -0.77700
O172        O  0.30161226  0.07271735  0.88203864    -0.82900
C173        C  0.32722312  0.12398503  0.93731567     0.98100
C174        C  0.32704488  0.06336814  0.87691864     1.04000
O175        O  0.34904487  0.12709312  0.92062874    -0.78600
C176        C  0.25581616  0.17396110  0.88497733     1.02300
Fe177      Fe  0.16333671  0.30857213  0.83891196     1.65800
Fe178      Fe  0.11038694  0.28780105  0.88480719     1.73200
Fe179      Fe  0.12513003  0.36019188  0.87528974     1.54400
O180        O  0.16972522  0.37150044  0.87557560    -0.82300
O181        O  0.07239503  0.30652518  0.87152515    -0.80600
O182        O  0.19366503  0.33150687  0.86167225    -0.84800
O183        O  0.15506413  0.34286700  0.81125806    -0.79700
O184        O  0.12809696  0.35318941  0.91994999    -0.81400
O185        O  0.10906352  0.26174482  0.84773097    -0.84200
C186        C  0.13573449  0.36248164  0.80955611     0.96600
C187        C  0.19323249  0.35695875  0.87219679     1.04000
O188        O  0.13299858  0.31894168  0.86657280    -1.13200
O189        O  0.14668708  0.26595623  0.89957164    -0.75600
O190        O  0.17632254  0.27253826  0.86195325    -0.79100
O191        O  0.12061177  0.37046308  0.83128410    -0.79800
C192        C  0.16964808  0.26009466  0.88553985     0.95500
O193        O  0.13519222  0.28455498  0.81424069    -0.77700
O194        O  0.10853742  0.30912047  0.92437057    -0.82900
C195        C  0.06324883  0.33252433  0.87178983     0.98100
C196        C  0.11809324  0.33259596  0.93544315     1.04000
O197        O  0.07992420  0.35423969  0.87612575    -0.78600
C198        C  0.11779596  0.26463807  0.82170482     1.02300
Fe199      Fe  0.33988772  0.34115909  0.80358587     1.65800
Fe200      Fe  0.39210000  0.38865053  0.78225197     1.73200
Fe201      Fe  0.37828053  0.37850681  0.85557466     1.54400
O202        O  0.33421930  0.38217116  0.86695907    -0.82300
O203        O  0.43094672  0.38099100  0.80258799    -0.80600
O204        O  0.31039191  0.35773609  0.83253155    -0.84800
O205        O  0.35473872  0.31109886  0.83277557    -0.79700
O206        O  0.37869655  0.42365876  0.84857053    -0.81400
O207        O  0.39940021  0.35099184  0.75853011    -0.84200
C208        C  0.36944683  0.31118304  0.85601252     0.96600
C209        C  0.31081855  0.37267885  0.85563483     1.04000
O210        O  0.37005529  0.36956865  0.81388569    -1.13200
O211        O  0.35570069  0.39838599  0.75750148    -0.75600
O212        O  0.32159396  0.36777032  0.77281866    -0.79100
O213        O  0.37939198  0.33437954  0.86750268    -0.79800
C214        C  0.33017169  0.38808042  0.75637293     0.95500
O215        O  0.36518067  0.32044894  0.77325174    -0.77700
O216        O  0.38826886  0.42879687  0.80141431    -0.82900
C217        C  0.44010617  0.37652507  0.82818716     0.98100
C218        C  0.38364619  0.43950454  0.82640324     1.04000
O219        O  0.42324304  0.37575053  0.85005157    -0.78600
C220        C  0.38694994  0.32647441  0.75763570     1.02300
Fe221      Fe  0.19786015  0.34220832  0.66008983     1.65800
Fe222      Fe  0.21798410  0.39088923  0.60847018     1.73200
Fe223      Fe  0.14504352  0.37844273  0.62222265     1.54400
O224        O  0.13484108  0.33407521  0.61873500    -0.82300
O225        O  0.19722187  0.43036576  0.61205941    -0.80600
O226        O  0.16740174  0.31245127  0.64739671    -0.84800
O227        O  0.17118673  0.36039821  0.69032360    -0.79700
O228        O  0.15074056  0.37838647  0.57696070    -0.81400
O229        O  0.24192837  0.40196330  0.64519549    -0.84200
C230        C  0.14703395  0.37352250  0.69016926     0.96600
C231        C  0.14561284  0.31152112  0.63067190     1.04000
O232        O  0.18690348  0.37062188  0.63020146    -1.13200
O233        O  0.24292333  0.35378430  0.60203044    -0.75600
O234        O  0.22608753  0.32101223  0.63324232    -0.79100
O235        O  0.13364287  0.38004737  0.66674848    -0.79800
C236        C  0.24265055  0.32835240  0.61267338     0.95500
O237        O  0.23001607  0.36776668  0.67706797    -0.77700
O238        O  0.19838453  0.38241434  0.56926560    -0.82900
C239        C  0.17223965  0.43995635  0.61890560     0.98100
C240        C  0.17261912  0.37908163  0.55999783     1.04000
O241        O  0.15082121  0.42336963  0.62434871    -0.78600
C242        C  0.24448858  0.38993926  0.66984432     1.02300
Fe243      Fe  0.34024849  0.19367116  0.65836575     1.65800
Fe244      Fe  0.39016223  0.21532125  0.60957304     1.73200
Fe245      Fe  0.38040455  0.14256593  0.62240276     1.54400
O246        O  0.37839123  0.13056212  0.66668281    -0.82300
O247        O  0.37910257  0.19734626  0.57031315    -0.80600
O248        O  0.35950179  0.16897755  0.68978770    -0.84800
O249        O  0.31329543  0.16033008  0.64598332    -0.79700
O250        O  0.42467322  0.15009503  0.62831901    -0.81400
O251        O  0.35398895  0.24183867  0.60649369    -0.84200
C252        C  0.31393752  0.13939534  0.62804887     0.96600
C253        C  0.37159441  0.14421109  0.68993335     1.04000
O254        O  0.37035987  0.18371286  0.63019132    -1.13200
O255        O  0.40245295  0.23612984  0.64757885    -0.75600
O256        O  0.36319092  0.22842437  0.67482242    -0.79100
O257        O  0.33709522  0.13096230  0.61549788    -0.79800
C258        C  0.38735124  0.24083097  0.67019315     0.95500
O259        O  0.31806491  0.21962372  0.62953056    -0.77700
O260        O  0.42955570  0.19424402  0.60954566    -0.82900
C261        C  0.37991553  0.17142147  0.56072650     0.98100
C262        C  0.44039218  0.17121601  0.62003406     1.04000
O263        O  0.38350900  0.14943466  0.57730153    -0.78600
C264        C  0.32748953  0.23991516  0.61358872     1.02300
Fe265      Fe  0.30839042  0.83854915  0.83385697     1.65800
Fe266      Fe  0.28581188  0.88816579  0.88393611     1.73200
Fe267      Fe  0.35947242  0.87696844  0.87233442     1.54400
O268        O  0.37154532  0.83301675  0.87479268    -0.82300
O269        O  0.30479435  0.92818862  0.87795652    -0.80600
O270        O  0.33704228  0.80908726  0.85060732    -0.84800
O271        O  0.33766455  0.85437435  0.80465902    -0.79700
O272        O  0.35309130  0.87496694  0.91709847    -0.81400
O273        O  0.26148781  0.89594843  0.84671258    -0.84200
C274        C  0.35953017  0.87093425  0.80495124     0.96600
C275        C  0.35958582  0.80956658  0.86632532     1.04000
O276        O  0.31793056  0.86799793  0.86341245    -1.13200
O277        O  0.26251627  0.85055200  0.89254789    -0.75600
O278        O  0.27744305  0.81899727  0.85904691    -0.79100
O279        O  0.37075405  0.88071417  0.82829618    -0.79800
C280        C  0.26159758  0.82570357  0.88054261     0.95500
O281        O  0.27813573  0.86442912  0.81387144    -0.77700
O282        O  0.30562204  0.88255458  0.92355946    -0.82900
C283        C  0.33024779  0.93803446  0.87412602     0.98100
C284        C  0.33088107  0.87727350  0.93338095     1.04000
O285        O  0.35255036  0.92173816  0.87209538    -0.78600
C286        C  0.26129378  0.88494946  0.82138797     1.02300
Fe287      Fe  0.16654880  0.68816176  0.83714845     1.65800
Fe288      Fe  0.11472212  0.71356197  0.88339082     1.73200
Fe289      Fe  0.12432064  0.63936627  0.87407557     1.54400
O290        O  0.12127671  0.62780922  0.82997321    -0.82300
O291        O  0.11711574  0.69446740  0.92371412    -0.80600
O292        O  0.15236355  0.65772701  0.80809740    -0.84800
O293        O  0.19430508  0.65974324  0.85682935    -0.79700
O294        O  0.07964614  0.64771260  0.87289718    -0.81400
O295        O  0.15250347  0.73625937  0.89374980    -0.84200
C296        C  0.19207493  0.63626160  0.87081655     0.96600
C297        C  0.13422757  0.63715269  0.80741221     1.04000
O298        O  0.13510084  0.68033510  0.86492198    -1.13200
O299        O  0.11013460  0.73689380  0.84505197    -0.75600
O300        O  0.14260716  0.71814001  0.81441818    -0.79100
O301        O  0.16768741  0.62496584  0.87724622    -0.79800
C302        C  0.12251844  0.73610855  0.82040900     0.95500
O303        O  0.18509268  0.71985459  0.86209558    -0.77700
O304        O  0.07432126  0.69579076  0.87562993    -0.82900
C305        C  0.12225608  0.66955630  0.93449379     0.98100
C306        C  0.06379142  0.67046109  0.87289738     1.04000
O307        O  0.12574289  0.64689112  0.91884666    -0.78600
C308        C  0.17782317  0.73646690  0.88279559     1.02300
Fe309      Fe  0.16544024  0.84172050  0.68439182     1.65800
Fe310      Fe  0.11395178  0.88715303  0.71114251     1.73200
Fe311      Fe  0.12181196  0.87818242  0.63727820     1.54400
O312        O  0.16505912  0.87940327  0.62158952    -0.82300
O313        O  0.07382543  0.87658795  0.69526526    -0.80600
O314        O  0.19271623  0.86475873  0.65861040    -0.84800
O315        O  0.15358008  0.81426450  0.65105089    -0.79700
O316        O  0.12516440  0.92254126  0.64459149    -0.81400
O317        O  0.11305956  0.84857877  0.73512697    -0.84200
C318        C  0.13271802  0.81268952  0.63314317     0.96600
C319        C  0.18978421  0.87619674  0.63385471     1.04000
O320        O  0.13365070  0.86917522  0.67761109    -1.13200
O321        O  0.15196308  0.89994561  0.73145567    -0.75600
O322        O  0.18242598  0.86453450  0.71875980    -0.79100
O323        O  0.11678718  0.83436633  0.62678106    -0.79800
C324        C  0.17616739  0.88690270  0.73360409     0.95500
O325        O  0.14076874  0.81670064  0.71138966    -0.77700
O326        O  0.11241690  0.92758154  0.69123335    -0.82900
C327        C  0.06229479  0.87598300  0.67027683     0.98100
C328        C  0.11867732  0.93818314  0.66648801     1.04000
O329        O  0.07722737  0.87863846  0.64710812    -0.78600
C330        C  0.12315409  0.82294489  0.73157845     1.02300
Fe331      Fe  0.33508321  0.66330835  0.81185067     1.65800
Fe332      Fe  0.38757951  0.61929529  0.78619495     1.73200
Fe333      Fe  0.37624438  0.62520533  0.85911819     1.54400
O334        O  0.38263060  0.66874814  0.86963010    -0.82300
O335        O  0.39075012  0.57856405  0.80586162    -0.80600
O336        O  0.34395630  0.68833656  0.84813685    -0.84800
O337        O  0.30661371  0.63793423  0.83412455    -0.79700
O338        O  0.42082161  0.62300447  0.85079364    -0.81400
O339        O  0.35038978  0.60493821  0.76560993    -0.84200
C340        C  0.30844052  0.62715779  0.85932315     0.96600
C341        C  0.36621912  0.69032714  0.86426557     1.04000
O342        O  0.36627527  0.63566606  0.81902122    -1.13200
O343        O  0.38668499  0.65799247  0.76222629    -0.75600
O344        O  0.36167935  0.69023370  0.78834788    -0.79100
O345        O  0.33247103  0.62538422  0.87314442    -0.79800
C346        C  0.37768360  0.68389276  0.76679769     0.95500
O347        O  0.32122797  0.64258118  0.77472535    -0.77700
O348        O  0.42634321  0.63247549  0.80367797    -0.82900
C349        C  0.38146882  0.56645823  0.82899480     0.98100
C350        C  0.43665660  0.62922416  0.82901709     1.04000
O351        O  0.37180935  0.58118264  0.85038977    -0.78600
C352        C  0.32712422  0.61915441  0.76134191     1.02300
Fe353      Fe  0.33256393  0.81644519  0.65693883     1.65800
Fe354      Fe  0.38536816  0.79089980  0.61276860     1.73200
Fe355      Fe  0.37429258  0.86447808  0.61935999     1.54400
O356        O  0.33061824  0.87897073  0.61811995    -0.82300
O357        O  0.42449708  0.80834456  0.62484845    -0.80600
O358        O  0.30430315  0.84178950  0.63424274    -0.84800
O359        O  0.34420181  0.84980723  0.68441015    -0.79700
O360        O  0.37118989  0.85610694  0.57497036    -0.81400
O361        O  0.38622464  0.76666231  0.65089031    -0.84200
C362        C  0.36492267  0.86786700  0.68545578     0.96600
C363        C  0.30631032  0.86634710  0.62222756     1.04000
O364        O  0.36405361  0.82397314  0.62953578    -1.13200
O365        O  0.34817307  0.76994416  0.59881008    -0.75600
O366        O  0.31657473  0.78210516  0.63335382    -0.79100
O367        O  0.37941490  0.87533498  0.66317543    -0.79800
C368        C  0.32352243  0.76772575  0.61086652     0.95500
O369        O  0.35766888  0.78968050  0.68233245    -0.77700
O370        O  0.38725824  0.81039096  0.57263283    -0.82900
C371        C  0.43489814  0.83379355  0.62324441     0.98100
C372        C  0.37976100  0.83402853  0.56048074     1.04000
O373        O  0.41910075  0.85611410  0.61852263    -0.78600
C374        C  0.37572699  0.76970721  0.67623692     1.02300
Fe375      Fe  0.19624594  0.66529534  0.65904428     1.65800
Fe376      Fe  0.21915654  0.61524077  0.60950115     1.73200
Fe377      Fe  0.14546327  0.62643207  0.62095327     1.54400
O378        O  0.13424320  0.62286920  0.66496848    -0.82300
O379        O  0.19900451  0.61886280  0.56989162    -0.80600
O380        O  0.16748805  0.64899097  0.68865643    -0.84800
O381        O  0.16723068  0.69446078  0.64259531    -0.79700
O382        O  0.15283583  0.58172542  0.62148684    -0.81400
O383        O  0.24140650  0.65316518  0.59963109    -0.84200
C384        C  0.14450328  0.69384456  0.62721186     0.96600
C385        C  0.14561773  0.63239239  0.68834354     1.04000
O386        O  0.18691340  0.63558888  0.62975232    -1.13200
O387        O  0.24414213  0.60867000  0.64650308    -0.75600
O388        O  0.22686268  0.64012240  0.67893916    -0.79100
O389        O  0.13289201  0.67029395  0.61851145    -0.79800
C390        C  0.24405095  0.61984792  0.67170675     0.95500
O391        O  0.22648882  0.68486149  0.63312822    -0.77700
O392        O  0.20075179  0.57530524  0.61691129    -0.82900
C393        C  0.17389462  0.62445818  0.55994269     0.98100
C394        C  0.17527395  0.56547545  0.62059216     1.04000
O395        O  0.15184423  0.62810560  0.57621540    -0.78600
C396        C  0.24188084  0.67822119  0.61127186     1.02300
Fe397      Fe  0.83753318  0.83685534  0.69269423     1.65800
Fe398      Fe  0.88624042  0.88729912  0.71629527     1.73200
Fe399      Fe  0.87481904  0.87687121  0.64251278     1.54400
O400        O  0.87736860  0.83317436  0.62910386    -0.82300
O401        O  0.88076498  0.92763829  0.69775112    -0.80600
O402        O  0.85427610  0.80816437  0.66329896    -0.84800
O403        O  0.80774759  0.85320321  0.66418788    -0.79700
O404        O  0.91962486  0.87495761  0.64925076    -0.81400
O405        O  0.84852045  0.89482210  0.73987938    -0.84200
C406        C  0.80748197  0.87006776  0.64255597     0.96600
C407        C  0.86914004  0.80930661  0.64030773     1.04000
O408        O  0.86624553  0.86712652  0.68381225    -1.13200
O409        O  0.89447159  0.84970865  0.73983115    -0.75600
O410        O  0.86337001  0.81691807  0.72266813    -0.79100
O411        O  0.83055710  0.88044931  0.63138719    -0.79800
C412        C  0.88371527  0.82434181  0.73956878     0.95500
O413        O  0.81748805  0.86135597  0.72382384    -0.77700
O414        O  0.92620702  0.88191375  0.69682594    -0.82900
C415        C  0.87706232  0.93781382  0.67241708     0.98100
C416        C  0.93605327  0.87730069  0.67142206     1.04000
O417        O  0.87446011  0.92161319  0.65011182    -0.78600
C418        C  0.82396606  0.88231567  0.74045971     1.02300
Fe419      Fe  0.83851168  0.68855361  0.83555850     1.65800
Fe420      Fe  0.88719394  0.71012415  0.88618509     1.73200
Fe421      Fe  0.87636846  0.63708951  0.87367578     1.54400
O422        O  0.83219027  0.62451436  0.87301973    -0.82300
O423        O  0.92719400  0.69310290  0.87584222    -0.80600
O424        O  0.80829759  0.66199878  0.85343951    -0.84800
O425        O  0.85241926  0.65742631  0.80689170    -0.79700
O426        O  0.87171936  0.64269942  0.91850746    -0.81400
O427        O  0.89077588  0.73729110  0.85048361    -0.84200
C428        C  0.87078005  0.63689837  0.80666168     0.96600
C429        C  0.80869467  0.63785816  0.86646305     1.04000
O430        O  0.86736097  0.67846211  0.86523087    -1.13200
O431        O  0.84875133  0.73013768  0.89845188    -0.75600
O432        O  0.82050467  0.72134685  0.86011505    -0.79100
O433        O  0.88256153  0.62700310  0.82964324    -0.79800
C434        C  0.82539754  0.73382474  0.88422521     0.95500
O435        O  0.86586708  0.71650484  0.81471151    -0.77700
O436        O  0.88658250  0.68826996  0.92498755    -0.82900
C437        C  0.93751696  0.66745868  0.87463031     0.98100
C438        C  0.87882155  0.66381061  0.93494546     1.04000
O439        O  0.92146142  0.64485169  0.87588790    -0.78600
C440        C  0.88276402  0.73602173  0.82414375     1.02300
Fe441      Fe  0.68980104  0.83165375  0.84006121     1.65800
Fe442      Fe  0.71402608  0.88134148  0.88938258     1.73200
Fe443      Fe  0.64025983  0.87331313  0.87695090     1.54400
O444        O  0.62793445  0.87377712  0.83308799    -0.82300
O445        O  0.69503863  0.87625741  0.92931264    -0.80600
O446        O  0.66224440  0.84871083  0.80973958    -0.84800
O447        O  0.65877136  0.80432359  0.85605673    -0.79700
O448        O  0.64876453  0.91771499  0.87316077    -0.81400
O449        O  0.73735647  0.84320053  0.89671176    -0.84200
C450        C  0.63683381  0.80606631  0.87252757     0.96600
C451        C  0.63935580  0.86395729  0.80988688     1.04000
O452        O  0.68130873  0.86216572  0.86887632    -1.13200
O453        O  0.73692931  0.88940390  0.85165915    -0.75600
O454        O  0.72201904  0.85530673  0.82063270    -0.79100
O455        O  0.62706150  0.83008208  0.88233963    -0.79800
C456        C  0.73769491  0.87701197  0.82702681     0.95500
O457        O  0.71869096  0.81051942  0.86644113    -0.77700
O458        O  0.69551336  0.92188989  0.88532035    -0.82900
C459        C  0.66905393  0.87557628  0.93840548     0.98100
C460        C  0.67108965  0.93302874  0.87875390     1.04000
O461        O  0.64704456  0.87485478  0.92165760    -0.78600
C462        C  0.73619448  0.81757143  0.88643809     1.02300
Fe463      Fe  0.80776091  0.66287206  0.65961744     1.65800
Fe464      Fe  0.78436932  0.61275485  0.61031436     1.73200
Fe465      Fe  0.85821180  0.62367233  0.62113873     1.54400
O466        O  0.87054799  0.66761890  0.61843713    -0.82300
O467        O  0.80368837  0.57264710  0.61466293    -0.80600
O468        O  0.83638998  0.69203978  0.64271616    -0.84800
O469        O  0.83750020  0.64690668  0.68876592    -0.79700
O470        O  0.85104764  0.62476412  0.57657816    -0.81400
O471        O  0.76101576  0.60489701  0.64829610    -0.84200
C472        C  0.85980922  0.63073110  0.68816744     0.96600
C473        C  0.85917723  0.69127596  0.62745739     1.04000
O474        O  0.81681830  0.63297038  0.63031928    -1.13200
O475        O  0.76040633  0.65013031  0.60254317    -0.75600
O476        O  0.77666861  0.68260497  0.63447290    -0.79100
O477        O  0.87049664  0.62062756  0.66476157    -0.79800
C478        C  0.76005176  0.67532386  0.61376978     0.95500
O479        O  0.77746483  0.63766499  0.67993879    -0.77700
O480        O  0.80336299  0.61833380  0.57021595    -0.82900
C481        C  0.82917016  0.56269835  0.61836656     0.98100
C482        C  0.82880835  0.62235296  0.56033148     1.04000
O483        O  0.85126903  0.57888380  0.62198787    -0.78600
C484        C  0.76084925  0.61677556  0.67328617     1.02300
Fe485      Fe  0.65869726  0.66329785  0.80712893     1.65800
Fe486      Fe  0.61042395  0.61277516  0.78358113     1.73200
Fe487      Fe  0.62258909  0.62215259  0.85731452     1.54400
O488        O  0.66674331  0.62098037  0.86863559    -0.82300
O489        O  0.57066362  0.62003162  0.80278282    -0.80600
O490        O  0.68962524  0.64522071  0.83353696    -0.84800
O491        O  0.64354815  0.69073855  0.83883153    -0.79700
O492        O  0.62576910  0.57778303  0.84948777    -0.81400
O493        O  0.60337937  0.65032571  0.75950226    -0.84200
C494        C  0.62707678  0.68925657  0.86073927     0.96600
C495        C  0.68982515  0.62982121  0.85628304     1.04000
O496        O  0.63058104  0.63260194  0.81605041    -1.13200
O497        O  0.64825965  0.60397616  0.76055408    -0.75600
O498        O  0.67739130  0.64028942  0.77371893    -0.79100
O499        O  0.61750220  0.66536231  0.87056955    -0.79800
C500        C  0.67190332  0.61798565  0.75844619     0.95500
O501        O  0.63100395  0.68458819  0.77942097    -0.77700
O502        O  0.61494019  0.57236722  0.80256837    -0.82900
C503        C  0.56135997  0.62244748  0.82864879     0.98100
C504        C  0.62171919  0.56196610  0.82720049     1.04000
O505        O  0.57790880  0.62180396  0.85078844    -0.78600
C506        C  0.61213755  0.67644273  0.76110918     1.02300
Fe507      Fe  0.65954925  0.80610063  0.65996591     1.65800
Fe508      Fe  0.60885098  0.78529331  0.61056573     1.73200
Fe509      Fe  0.62168030  0.85852648  0.62318868     1.54400
O510        O  0.62012681  0.86943945  0.66780142    -0.82300
O511        O  0.61699321  0.80418155  0.57093437    -0.80600
O512        O  0.64152199  0.83227459  0.69062864    -0.84800
O513        O  0.68849144  0.83726704  0.64720090    -0.79700
O514        O  0.57700718  0.85303949  0.62503799    -0.81400
O515        O  0.64569221  0.75940169  0.60415082    -0.84200
C516        C  0.68853960  0.85948544  0.63111865     0.96600
C517        C  0.62744626  0.85591267  0.69090555     1.04000
O518        O  0.62992753  0.81673096  0.63114177    -1.13200
O519        O  0.59834701  0.76280379  0.64805646    -0.75600
O520        O  0.63527498  0.77324539  0.67742870    -0.79100
O521        O  0.66557121  0.86976166  0.61966858    -0.79800
C522        C  0.61210288  0.75962275  0.67171770     0.85900
O523        O  0.68024923  0.77852298  0.63210104    -0.77700
O524        O  0.56924508  0.80629660  0.61453816    -0.82900
C525        C  0.62059828  0.82987090  0.56152306     0.98100
C526        C  0.56013028  0.83167305  0.62070213     1.04000
O527        O  0.62163453  0.85211064  0.57813256    -0.78600
C528        C  0.67180530  0.76038897  0.61319341     1.02300
Fe529      Fe  0.83427028  0.30524532  0.15976624     1.65800
Fe530      Fe  0.88506797  0.28256449  0.11248374     1.73200
Fe531      Fe  0.87306283  0.35526503  0.12240000     1.54400
O532        O  0.82861875  0.36802849  0.12339696    -0.82300
O533        O  0.92415233  0.29978696  0.12467710    -0.80600
O534        O  0.80430306  0.32838104  0.13700087    -0.84800
O535        O  0.84360507  0.34001282  0.18659637    -0.79700
O536        O  0.86840609  0.34841666  0.07795073    -0.81400
O537        O  0.88634881  0.25671487  0.14984329    -0.84200
C538        C  0.86475345  0.35751024  0.18822403     0.96600
C539        C  0.80498626  0.35371753  0.12639166     1.04000
O540        O  0.86415026  0.31445859  0.13133218    -1.13200
O541        O  0.84744736  0.26276816  0.09846122    -0.75600
O542        O  0.82002155  0.26887980  0.13774766    -0.79100
O543        O  0.87963865  0.36478794  0.16621492    -0.79800
C544        C  0.82514426  0.25696010  0.11340537     0.95500
O545        O  0.86245027  0.28100069  0.18417119    -0.77700
O546        O  0.88636214  0.30360545  0.07279380    -0.82900
C547        C  0.93440025  0.32537246  0.12366915     0.98100
C548        C  0.87704309  0.32737470  0.06209041     1.04000
O549        O  0.91812646  0.34761908  0.11995738    -0.78600
C550        C  0.87854446  0.26003182  0.17618657     1.02300
Fe551      Fe  0.80984163  0.33347543  0.33956960     1.65800
Fe552      Fe  0.78700761  0.38403421  0.38847782     1.73200
Fe553      Fe  0.86055583  0.37483878  0.37527127     1.54400
O554        O  0.87351863  0.33130535  0.38056580    -0.82300
O555        O  0.80559115  0.42413309  0.38342500    -0.80600
O556        O  0.84095929  0.30577883  0.35527320    -0.84800
O557        O  0.83679562  0.34995219  0.30874988    -0.79700
O558        O  0.85488308  0.37612982  0.42031224    -0.81400
O559        O  0.76314255  0.39224638  0.35118847    -0.84200
C560        C  0.85955537  0.36519063  0.30815871     0.96600
C561        C  0.86319750  0.30729827  0.37139114     1.04000
O562        O  0.81918909  0.36420284  0.36777065    -1.13200
O563        O  0.76319726  0.34675250  0.39617059    -0.75600
O564        O  0.78133846  0.31303272  0.36659053    -0.79100
O565        O  0.87167333  0.37516702  0.33097833    -0.79800
C566        C  0.76381314  0.32104207  0.38619226     0.95500
O567        O  0.77717001  0.35728755  0.32058957    -0.77700
O568        O  0.80695541  0.37766359  0.42780556    -0.82900
C569        C  0.82967316  0.43490557  0.37570639     0.98100
C570        C  0.83286805  0.37552524  0.43703743     1.04000
O571        O  0.85222142  0.41935807  0.37134983    -0.78600
C572        C  0.76139666  0.37904029  0.32700634     1.02300
Fe573      Fe  0.83601827  0.16236545  0.31478703     1.65800
Fe574      Fe  0.88426732  0.11266098  0.28900137     1.73200
Fe575      Fe  0.87526230  0.12157103  0.36309514     1.54400
O576        O  0.87695372  0.16539096  0.37706583    -0.82300
O577        O  0.87705913  0.07204510  0.30622060    -0.80600
O578        O  0.85629377  0.19109601  0.34152700    -0.84800
O579        O  0.80849387  0.14822987  0.34659678    -0.79700
O580        O  0.91974771  0.12493966  0.35552042    -0.81400
O581        O  0.84586880  0.10782481  0.26536181    -0.84200
C582        C  0.80856468  0.12947368  0.36662644     0.96600
C583        C  0.87067470  0.18950959  0.36485477     1.04000
O584        O  0.86525325  0.13209063  0.32231386    -1.13200
O585        O  0.89363695  0.15087533  0.26713257    -0.75600
O586        O  0.85872749  0.18109481  0.28159899    -0.79100
O587        O  0.83158415  0.11657855  0.37504082    -0.79800
C588        C  0.88039694  0.17507799  0.26580655     0.95500
O589        O  0.81324032  0.13678947  0.28650443    -0.77700
O590        O  0.92485429  0.11585314  0.30814135    -0.82900
C591        C  0.87514109  0.06117841  0.33146235     0.98100
C592        C  0.93543488  0.12200478  0.33294756     1.04000
O593        O  0.87562799  0.07675760  0.35441696    -0.78600
C594        C  0.82020805  0.11807161  0.26749059     1.02300
Fe595      Fe  0.68883462  0.16336506  0.16027353     1.65800
Fe596      Fe  0.71321586  0.11101586  0.11403208     1.73200
Fe597      Fe  0.63923894  0.12303642  0.12178882     1.54400
O598        O  0.62684111  0.12055379  0.16564458    -0.82300
O599        O  0.69499142  0.11422398  0.07334107    -0.80600
O600        O  0.65958660  0.14747861  0.18933537    -0.84800
O601        O  0.65974789  0.19165373  0.14271418    -0.79700
O602        O  0.64621953  0.07819880  0.12352635    -0.81400
O603        O  0.73651680  0.14831445  0.10448094    -0.84200
C604        C  0.63716874  0.19057366  0.12720266     0.96600
C605        C  0.63779351  0.13078557  0.18896997     1.04000
O606        O  0.68037634  0.13243497  0.13194612    -1.13200
O607        O  0.73622650  0.10519758  0.15242776    -0.75600
O608        O  0.71953192  0.13970766  0.18188610    -0.79100
O609        O  0.62627701  0.16678068  0.11823520    -0.79800
C610        C  0.73624593  0.11847185  0.17661023     0.95500
O611        O  0.71946380  0.18233389  0.13448161    -0.77700
O612        O  0.69417943  0.07133726  0.12162252    -0.82900
C613        C  0.67043989  0.11986411  0.06199581     0.98100
C614        C  0.66849001  0.06171815  0.12413829     1.04000
O615        O  0.64755979  0.12388259  0.07710561    -0.78600
C616        C  0.73626695  0.17415639  0.11430109     1.02300
Fe617      Fe  0.65989875  0.33611520  0.19197315     1.65800
Fe618      Fe  0.61195570  0.38700825  0.21651307     1.73200
Fe619      Fe  0.62050893  0.37570283  0.14254561     1.54400
O620        O  0.66399728  0.37838792  0.12942164    -0.82300
O621        O  0.57129534  0.38245051  0.19825627    -0.80600
O622        O  0.68856266  0.35220509  0.16207345    -0.84800
O623        O  0.64254320  0.30733684  0.16298791    -0.79700
O624        O  0.62216909  0.42047779  0.14974356    -0.81400
O625        O  0.60369149  0.34974012  0.23998358    -0.84200
C626        C  0.62690714  0.30834344  0.14043457     0.96600
C627        C  0.68758384  0.36814494  0.13970211     1.04000
O628        O  0.63075500  0.36631122  0.18364457    -1.13200
O629        O  0.65015877  0.39375217  0.23964151    -0.75600
O630        O  0.68108591  0.36067708  0.22243510    -0.79100
O631        O  0.61743998  0.33203266  0.12972979    -0.79800
C632        C  0.67490883  0.38147089  0.23943181     0.95500
O633        O  0.63483924  0.31653974  0.22315283    -0.77700
O634        O  0.61832958  0.42681071  0.19759771    -0.82900
C635        C  0.56044137  0.37679265  0.17351181     0.98100
C636        C  0.62200756  0.43668985  0.17219079     1.04000
O637        O  0.57597350  0.37414175  0.15078331    -0.78600
C638        C  0.61470343  0.32443023  0.24024157     1.02300
Fe639      Fe  0.66055828  0.19137384  0.33707316     1.65800
Fe640      Fe  0.61185909  0.21351187  0.38836922     1.73200
Fe641      Fe  0.62222264  0.14012877  0.37476689     1.54400
O642        O  0.61959566  0.12854563  0.33082377    -0.82300
O643        O  0.62060345  0.19402244  0.42761704    -0.80600
O644        O  0.64442394  0.16264050  0.30732603    -0.84800
O645        O  0.69022123  0.16225679  0.35302557    -0.79700
O646        O  0.57728212  0.14726400  0.37343124    -0.81400
O647        O  0.64895196  0.23806963  0.39472148    -0.84200
C648        C  0.68984946  0.14002560  0.36917301     0.96600
C649        C  0.62912171  0.13989652  0.30756862     1.04000
O650        O  0.63138748  0.18165041  0.36668860    -1.13200
O651        O  0.60167385  0.23689556  0.35116255    -0.75600
O652        O  0.63434583  0.22212635  0.31838666    -0.79100
O653        O  0.66637599  0.12836194  0.37799969    -0.79800
C654        C  0.61300694  0.23788602  0.32600946     0.95500
O655        O  0.68088476  0.22167988  0.36244525    -0.77700
O656        O  0.57170817  0.19390835  0.38566815    -0.82900
C657        C  0.62370056  0.16808435  0.43651744     0.98100
C658        C  0.56130239  0.16910885  0.37960028     1.04000
O659        O  0.62331560  0.14616611  0.41960144    -0.78600
C660        C  0.67389318  0.23838271  0.38315803     1.02300
Fe661      Fe  0.83534800  0.83273038  0.31166234     1.65800
Fe662      Fe  0.88188152  0.88375489  0.28611765     1.73200
Fe663      Fe  0.87366269  0.87426454  0.35979114     1.54400
O664        O  0.82975432  0.87978205  0.37067280    -0.82300
O665        O  0.92230390  0.88376800  0.30558612    -0.80600
O666        O  0.80742518  0.84624299  0.34371795    -0.84800
O667        O  0.85640042  0.80434180  0.33813305    -0.79700
O668        O  0.87427189  0.91903899  0.35118525    -0.81400
O669        O  0.89358198  0.84565136  0.26487870    -0.84200
C670        C  0.86980659  0.80634388  0.36200169     0.96600
C671        C  0.80695149  0.86653573  0.36233286     1.04000
O672        O  0.86378917  0.86358235  0.31920470    -1.13200
O673        O  0.84376680  0.88634135  0.26214762    -0.75600
O674        O  0.81149880  0.85792613  0.28395600    -0.79100
O675        O  0.87518308  0.83067241  0.37424151    -0.79800
C676        C  0.81829242  0.87610000  0.26453716     0.95500
O677        O  0.85879372  0.81491301  0.27811251    -0.77700
O678        O  0.87212360  0.92405408  0.30311443    -0.82900
C679        C  0.93354948  0.87722305  0.32997246     0.98100
C680        C  0.87181832  0.93477786  0.32854409     1.04000
O681        O  0.91821317  0.87082395  0.35205601    -0.78600
C682        C  0.88085157  0.82127122  0.26299529     1.02300
Fe683      Fe  0.83367274  0.69140958  0.16017371     1.65800
Fe684      Fe  0.88371204  0.71308382  0.11088288     1.73200
Fe685      Fe  0.87101807  0.63963932  0.12156751     1.54400
O686        O  0.87466719  0.62789904  0.16525013    -0.82300
O687        O  0.88163019  0.69248714  0.07108970    -0.80600
O688        O  0.84734557  0.66028346  0.18879556    -0.84800
O689        O  0.80337719  0.66491139  0.14188542    -0.79700
O690        O  0.91605550  0.64583070  0.12240857    -0.81400
O691        O  0.84625255  0.73610710  0.09998590    -0.84200
C692        C  0.80346053  0.64160905  0.12723094     0.96600
C693        C  0.86402695  0.63839743  0.18847697     1.04000
O694        O  0.86274763  0.68129992  0.13066374    -1.13200
O695        O  0.88937723  0.73844907  0.14795330    -0.75600
O696        O  0.86092366  0.71902177  0.18161140    -0.79100
O697        O  0.82671198  0.62859195  0.11945845    -0.79800
C698        C  0.88001659  0.73711172  0.17383265     0.95500
O699        O  0.81611459  0.72455079  0.13592347    -0.77700
O700        O  0.92297162  0.69385641  0.12009451    -0.82900
C701        C  0.87590978  0.66748451  0.06080520     0.98100
C702        C  0.93248159  0.66809789  0.12329202     1.04000
O703        O  0.86944303  0.64598663  0.07682256    -0.78600
C704        C  0.82230455  0.73908060  0.11341139     1.02300
Fe705      Fe  0.68407590  0.83376213  0.15884610     1.65800
Fe706      Fe  0.70952515  0.88533780  0.11422641     1.73200
Fe707      Fe  0.63647069  0.87590806  0.12264484     1.54400
O708        O  0.62183397  0.83214127  0.12329690    -0.82300
O709        O  0.69330485  0.92487577  0.12731320    -0.80600
O710        O  0.66125348  0.80568414  0.13350630    -0.84800
O711        O  0.64816490  0.84271246  0.18457902    -0.79700
O712        O  0.64385163  0.87121849  0.07842479    -0.81400
O713        O  0.73396328  0.88438081  0.15233069    -0.84200
C714        C  0.63258269  0.86533133  0.18751870     0.96600
C715        C  0.63529687  0.80776912  0.12469456     1.04000
O716        O  0.67669505  0.86505433  0.13159252    -1.13200
O717        O  0.72913420  0.84730130  0.09961416    -0.75600
O718        O  0.72108351  0.81935188  0.13801482    -0.79100
O719        O  0.62734793  0.88238413  0.16650154    -0.79800
C720        C  0.73377639  0.82432678  0.11413513     0.95500
O721        O  0.70784316  0.86047499  0.18519083    -0.77700
O722        O  0.68898827  0.88871574  0.07429980    -0.82900
C723        C  0.66803812  0.93593367  0.12591353     0.98100
C724        C  0.66509822  0.88021985  0.06321942     1.04000
O725        O  0.64552083  0.92061702  0.12076819    -0.78600
C726        C  0.72931047  0.87625186  0.17835502     1.02300
Fe727      Fe  0.65947294  0.80705745  0.33659771     1.65800
Fe728      Fe  0.61072229  0.78436647  0.38701953     1.73200
Fe729      Fe  0.62028906  0.85792445  0.37484526     1.54400
O730        O  0.66417377  0.87025027  0.37790561    -0.82300
O731        O  0.57071803  0.80389120  0.38469696    -0.80600
O732        O  0.68823914  0.83748277  0.35137983    -0.84800
O733        O  0.64169469  0.83478271  0.30685969    -0.79700
O734        O  0.62145993  0.85132060  0.41981835    -0.81400
O735        O  0.60028115  0.76172303  0.34937335    -0.84200
C736        C  0.62623429  0.85756894  0.30722343     0.96600
C737        C  0.68764500  0.85969524  0.36760660     1.04000
O738        O  0.63005851  0.81653067  0.36616190    -1.13200
O739        O  0.64796124  0.75982688  0.39276836    -0.75600
O740        O  0.68079464  0.77796512  0.36259571    -0.79100
O741        O  0.61741233  0.86949125  0.33066700    -0.79800
C742        C  0.67336907  0.76036087  0.38229682     0.95500
O743        O  0.63466221  0.77496746  0.31816767    -0.77700
O744        O  0.61916077  0.80326487  0.42664364    -0.82900
C745        C  0.55980227  0.82862918  0.37948413     0.98100
C746        C  0.62194577  0.82902711  0.43623484     1.04000
O747        O  0.57541177  0.85070661  0.37376473    -0.78600
C748        C  0.61248869  0.76012290  0.32469342     1.02300
Fe749      Fe  0.80824818  0.66269242  0.33700537     1.65800
Fe750      Fe  0.78427582  0.61198161  0.38492309     1.73200
Fe751      Fe  0.85815345  0.62168787  0.37428752     1.54400
O752        O  0.86963749  0.61897525  0.33026199    -0.82300
O753        O  0.80342627  0.61671768  0.42488774    -0.80600
O754        O  0.83657378  0.64606831  0.30724622    -0.84800
O755        O  0.83823813  0.69070675  0.35400969    -0.79700
O756        O  0.85036685  0.57720737  0.37238898    -0.81400
O757        O  0.76110551  0.64984140  0.39364428    -0.84200
C758        C  0.86083855  0.68912812  0.36957864     0.96600
C759        C  0.85844119  0.62936078  0.30718679     1.04000
O760        O  0.81692170  0.63203765  0.36544826    -1.13200
O761        O  0.76073565  0.60511786  0.34711576    -0.75600
O762        O  0.77657616  0.63894207  0.31658202    -0.79100
O763        O  0.87157572  0.66508732  0.37807235    -0.79800
C764        C  0.76017180  0.61778263  0.32266677     0.95500
O765        O  0.77856409  0.68285021  0.36312533    -0.77700
O766        O  0.80281990  0.57159540  0.37883039    -0.82900
C767        C  0.82871186  0.62101463  0.43500075     0.98100
C768        C  0.82803917  0.56116654  0.37444183     1.04000
O769        O  0.85121884  0.62267831  0.41903444    -0.78600
C770        C  0.76163867  0.67543617  0.38339075     1.02300
Fe771      Fe  0.65539975  0.66330048  0.19093690     1.65800
Fe772      Fe  0.60804787  0.61207689  0.21398798     1.73200
Fe773      Fe  0.61871980  0.62303242  0.14055961     1.54400
O774        O  0.61730631  0.66690994  0.12741897    -0.82300
O775        O  0.61836487  0.57241361  0.19622785    -0.80600
O776        O  0.63460531  0.69249983  0.16486421    -0.84800
O777        O  0.68397751  0.65121436  0.15876947    -0.79700
O778        O  0.57415654  0.62568003  0.14703366    -0.81400
O779        O  0.64538006  0.60873993  0.23917408    -0.84200
C780        C  0.68480305  0.63251221  0.13855121     0.96600
C781        C  0.62235341  0.69098221  0.14030362     1.04000
O782        O  0.62727457  0.63276426  0.18177895    -1.13200
O783        O  0.59566746  0.64948521  0.23580182    -0.75600
O784        O  0.63130216  0.67995827  0.22453624    -0.79100
O785        O  0.66250330  0.61880587  0.12986748    -0.79800
C786        C  0.60872691  0.67351347  0.23880789     0.95500
O787        O  0.67860055  0.63695687  0.21841661    -0.77700
O788        O  0.56824815  0.61328998  0.19353434    -0.82900
C789        C  0.62044171  0.56223207  0.17066597     0.98100
C790        C  0.55815512  0.62051862  0.16889904     1.04000
O791        O  0.61896317  0.57823768  0.14816676    -0.78600
C792        C  0.67106348  0.61862745  0.23748472     1.02300
Fe793      Fe  0.18358522  0.33642154  0.33342020     1.65800
Fe794      Fe  0.20987921  0.38646700  0.38035386     1.73200
Fe795      Fe  0.13609428  0.37575882  0.37463620     1.54400
O796        O  0.12083012  0.37541523  0.33114598    -0.82300
O797        O  0.19495263  0.37853509  0.42158606    -0.80600
O798        O  0.15732121  0.35725156  0.30461291    -0.84800
O799        O  0.15086474  0.30959948  0.34701273    -0.79700
O800        O  0.14213781  0.42005044  0.36962153    -0.81400
O801        O  0.23513991  0.34866038  0.38347207    -0.84200
C802        C  0.13333133  0.30942586  0.36810512     0.96600
C803        C  0.13317652  0.37030623  0.30676271     1.04000
O804        O  0.17645345  0.36637807  0.36290368    -1.13200
O805        O  0.22845311  0.39690883  0.34088387    -0.75600
O806        O  0.21756950  0.35793645  0.31458149    -0.79100
O807        O  0.12621600  0.33224222  0.38194917    -0.79800
C808        C  0.23097685  0.38166518  0.31806497     0.95500
O809        O  0.21103634  0.31369295  0.36019493    -0.77700
O810        O  0.18927474  0.42644269  0.37894090    -0.82900
C811        C  0.17020883  0.37710751  0.43359817     0.98100
C812        C  0.16407127  0.43635490  0.37322696     1.04000
O813        O  0.14659835  0.37795546  0.41901183    -0.78600
C814        C  0.23196508  0.32212839  0.37606305     1.02300
Fe815      Fe  0.33465505  0.33434245  0.18776118     1.65800
Fe816      Fe  0.38224735  0.38483732  0.21233965     1.73200
Fe817      Fe  0.37389727  0.37363956  0.13863244     1.54400
O818        O  0.37933521  0.32974037  0.12718968    -0.82300
O819        O  0.38139164  0.42426186  0.19185637    -0.80600
O820        O  0.34995953  0.30597462  0.15720554    -0.84800
O821        O  0.30517834  0.35269176  0.16006986    -0.79700
O822        O  0.41858406  0.37404449  0.14783975    -0.81400
O823        O  0.34311245  0.39597903  0.23172153    -0.84200
C824        C  0.30621672  0.36764113  0.13705931     0.96600
C825        C  0.36819423  0.30636612  0.13674934     1.04000
O826        O  0.36365696  0.36437320  0.17947131    -1.13200
O827        O  0.38606577  0.34832110  0.23834734    -0.75600
O828        O  0.36100006  0.31317426  0.21669913    -0.79100
O829        O  0.33006422  0.37512268  0.12511858    -0.79800
C830        C  0.37778239  0.32211080  0.23659472     0.95500
O831        O  0.31544206  0.35817007  0.22000340    -0.77700
O832        O  0.42290753  0.37595529  0.19613845    -0.82900
C833        C  0.37584461  0.43453431  0.16695743     0.98100
C834        C  0.43401242  0.37387787  0.17092908     1.04000
O835        O  0.37058730  0.41845812  0.14507210    -0.78600
C836        C  0.31970697  0.38163541  0.23381615     1.02300
Fe837      Fe  0.33547909  0.18462781  0.33422305     1.65800
Fe838      Fe  0.38274773  0.21116111  0.38416125     1.73200
Fe839      Fe  0.37561225  0.13721648  0.37480763     1.54400
O840        O  0.33224750  0.12481334  0.38073369    -0.82300
O841        O  0.42378222  0.19205025  0.38450686    -0.80600
O842        O  0.30915982  0.15105412  0.34719960    -0.84800
O843        O  0.35720002  0.15889575  0.30520899    -0.79700
O844        O  0.37713976  0.14621658  0.41948853    -0.81400
O845        O  0.39382490  0.23172135  0.34585160    -0.84200
C846        C  0.37054418  0.13486064  0.30707365     0.96600
C847        C  0.30942069  0.13161883  0.36664388     1.04000
O848        O  0.36470743  0.17763597  0.36444926    -1.13200
O849        O  0.34418273  0.23527401  0.38648260    -0.75600
O850        O  0.31115002  0.21163331  0.36029533    -0.79100
O851        O  0.37621723  0.12267286  0.33129679    -0.79800
C852        C  0.31823820  0.23210921  0.37733241     0.95500
O853        O  0.35719230  0.21939415  0.31671630    -0.77700
O854        O  0.37345474  0.19440132  0.42434594    -0.82900
C855        C  0.43505780  0.16776713  0.37726093     0.98100
C856        C  0.37421464  0.16901265  0.43508497     1.04000
O857        O  0.41981828  0.14573157  0.37042994    -0.78600
C858        C  0.37969220  0.23419354  0.32230817     1.02300
Fe859      Fe  0.16200490  0.16314361  0.31086866     1.65800
Fe860      Fe  0.11028686  0.11657705  0.28740065     1.73200
Fe861      Fe  0.12345624  0.12426312  0.36048432     1.54400
O862        O  0.16801595  0.12265271  0.37220102    -0.82300
O863        O  0.07116347  0.12664034  0.30632404    -0.80600
O864        O  0.19198230  0.14016153  0.33394163    -0.84800
O865        O  0.15223718  0.18967441  0.34548312    -0.79700
O866        O  0.12646228  0.07990967  0.35241236    -0.81400
O867        O  0.10699999  0.15495602  0.26375487    -0.84200
C868        C  0.13246305  0.19026440  0.36453133     0.96600
C869        C  0.19143129  0.12667552  0.35786113     1.04000
O870        O  0.13189480  0.13447265  0.31960881    -1.13200
O871        O  0.14723238  0.10473422  0.26458756    -0.75600
O872        O  0.17682605  0.14159200  0.27466516    -0.79100
O873        O  0.11839976  0.16781802  0.37204148    -0.79800
C874        C  0.17042360  0.11892527  0.26041399     0.95500
O875        O  0.13419521  0.18798460  0.28640563    -0.77700
O876        O  0.11099152  0.07599879  0.30670453    -0.82900
C877        C  0.06149353  0.12651370  0.33214067     0.98100
C878        C  0.11883350  0.06462694  0.33066784     1.04000
O879        O  0.07821948  0.12371409  0.35408927    -0.78600
C880        C  0.11611994  0.18088360  0.26682642     1.02300
Fe881      Fe  0.30970745  0.15888632  0.16471191     1.65800
Fe882      Fe  0.28422928  0.11177291  0.11381820     1.73200
Fe883      Fe  0.35840055  0.12043367  0.12302534     1.54400
O884        O  0.37157143  0.16408534  0.12201630    -0.82300
O885        O  0.30185637  0.07103316  0.11964025    -0.80600
O886        O  0.33806115  0.18826654  0.14748654    -0.84800
O887        O  0.34035299  0.14158075  0.19200377    -0.79700
O888        O  0.35046691  0.12458509  0.07868917    -0.81400
O889        O  0.25976065  0.10555904  0.15118024    -0.84200
C890        C  0.36201829  0.12462904  0.19026229     0.96600
C891        C  0.36039863  0.18762300  0.13152061     1.04000
O892        O  0.31748504  0.13026720  0.13385612    -1.13200
O893        O  0.26275269  0.15060466  0.10583532    -0.75600
O894        O  0.27779584  0.17973734  0.14146183    -0.79100
O895        O  0.37160594  0.11481416  0.16624233    -0.79800
C896        C  0.26195382  0.17460319  0.11949554     0.95500
O897        O  0.27961964  0.13336190  0.18542740    -0.77700
O898        O  0.30314867  0.11606121  0.07361546    -0.82900
C899        C  0.32723393  0.06019717  0.12161536     0.98100
C900        C  0.32782614  0.12212828  0.06303718     1.04000
O901        O  0.35008535  0.07578388  0.12200071    -0.78600
C902        C  0.26071382  0.11522930  0.17702312     1.02300
Fe903      Fe  0.16131273  0.31236607  0.16209866     1.65800
Fe904      Fe  0.11337170  0.28550770  0.11253427     1.73200
Fe905      Fe  0.12034926  0.35992351  0.12193122     1.54400
O906        O  0.11638971  0.37307274  0.16545525    -0.82300
O907        O  0.11608059  0.30409694  0.07186854    -0.80600
O908        O  0.14439437  0.34232635  0.19017693    -0.84800
O909        O  0.18943764  0.34114931  0.14410238    -0.79700
O910        O  0.07580872  0.35058489  0.12368661    -0.81400
O911        O  0.15236050  0.26403477  0.10441848    -0.84200
C912        C  0.18800920  0.36306293  0.12766234     0.96600
C913        C  0.12671223  0.36334565  0.18916299     1.04000
O914        O  0.13167929  0.31931260  0.13199016    -1.13200
O915        O  0.10732893  0.26235234  0.15085831    -0.75600
O916        O  0.13661988  0.28262700  0.18346501    -0.79100
O917        O  0.16400440  0.37361308  0.11846614    -0.79800
C918        C  0.11735032  0.26433732  0.17651333     0.95500
O919        O  0.18214947  0.28073584  0.13862412    -0.77700
O920        O  0.07257225  0.30250545  0.11835988    -0.82900
C921        C  0.11862569  0.32953346  0.06148382     0.98100
C922        C  0.06095835  0.32722167  0.12252550     1.04000
O923        O  0.12153363  0.35203180  0.07735643    -0.78600
C924        C  0.17677957  0.26414128  0.11731879     1.02300
Fe925      Fe  0.33268766  0.80825688  0.33675952     1.65800
Fe926      Fe  0.38291413  0.78530787  0.38526899     1.73200
Fe927      Fe  0.37301962  0.85858537  0.37345107     1.54400
O928        O  0.37187791  0.87064943  0.32935865    -0.82300
O929        O  0.37421700  0.80330672  0.42505444    -0.80600
O930        O  0.35194414  0.83315908  0.30574815    -0.84800
O931        O  0.30566941  0.84156285  0.34958139    -0.79700
O932        O  0.41752236  0.85119766  0.36871208    -0.81400
O933        O  0.34595005  0.75965930  0.38941663    -0.84200
C934        C  0.30636116  0.86241655  0.36757974     0.96600
C935        C  0.36487003  0.85739142  0.30600521     1.04000
O936        O  0.36298323  0.81749056  0.36519343    -1.13200
O937        O  0.39383563  0.76416439  0.34716604    -0.75600
O938        O  0.35504627  0.77342622  0.31963242    -0.79100
O939        O  0.32963346  0.87069614  0.37995288    -0.79800
C940        C  0.37862021  0.75998741  0.32456768     0.95500
O941        O  0.31068427  0.78205478  0.36512438    -0.77700
O942        O  0.42270186  0.80570859  0.38430831    -0.82900
C943        C  0.37506351  0.82920333  0.43470667     0.98100
C944        C  0.43339038  0.82993320  0.37664450     1.04000
O945        O  0.37589957  0.85144433  0.41823195    -0.78600
C946        C  0.31948040  0.76208405  0.38187318     1.02300
Fe947      Fe  0.15958939  0.83767954  0.30780669     1.65800
Fe948      Fe  0.11030870  0.88713363  0.28383168     1.73200
Fe949      Fe  0.12067586  0.87728188  0.35750448     1.54400
O950        O  0.11598709  0.83348985  0.36945849    -0.82300
O951        O  0.11217274  0.92717447  0.30353745    -0.80600
O952        O  0.14621152  0.80981299  0.33992672    -0.84800
O953        O  0.18935947  0.85759311  0.33395637    -0.79700
O954        O  0.07577036  0.87776893  0.34969577    -0.81400
O955        O  0.14832935  0.89739997  0.26209759    -0.84200
C956        C  0.18848569  0.87203860  0.35737785     0.96600
C957        C  0.12806715  0.81017663  0.36055071     1.04000
O958        O  0.13010448  0.86746368  0.31646625    -1.13200
O959        O  0.10563028  0.84956703  0.25932808    -0.75600
O960        O  0.13266339  0.81526897  0.28022551    -0.79100
O961        O  0.16476454  0.87875713  0.37013530    -0.79800
C962        C  0.11451042  0.82345794  0.26120745     0.95500
O963        O  0.17738912  0.86060280  0.27398780    -0.77700
O964        O  0.07010347  0.87958624  0.30149572    -0.82900
C965        C  0.11756140  0.93794196  0.32833906     0.98100
C966        C  0.05979431  0.87838418  0.32703230     1.04000
O967        O  0.12322239  0.92216733  0.35036713    -0.78600
C968        C  0.17191609  0.88331512  0.25941146     1.02300
Fe969      Fe  0.30133124  0.83448816  0.15638485     1.65800
Fe970      Fe  0.28021697  0.88513419  0.10700401     1.73200
Fe971      Fe  0.35360408  0.87304188  0.12026467     1.54400
O972        O  0.36418823  0.87526206  0.16451566    -0.82300
O973        O  0.30058562  0.87875606  0.06763566    -0.80600
O974        O  0.32899140  0.85090304  0.18701433    -0.84800
O975        O  0.33109533  0.80521577  0.14135356    -0.79700
O976        O  0.34713364  0.91790491  0.12205842    -0.81400
O977        O  0.25583588  0.84814665  0.09826036    -0.84200
C978        C  0.35408513  0.80568164  0.12641636     0.96600
C979        C  0.35170965  0.86630521  0.18745137     1.04000
O980        O  0.31177477  0.86427156  0.12778617    -1.13200
O981        O  0.25589177  0.89404422  0.14424130    -0.75600
O982        O  0.27005662  0.85971724  0.17511438    -0.79100
O983        O  0.36545568  0.82908252  0.11718116    -0.79800
C984        C  0.25463211  0.88163509  0.16882934     0.95500
O985        O  0.27197959  0.81483522  0.12935670    -0.77700
O986        O  0.29995519  0.92465333  0.11311449    -0.82900
C987        C  0.32626178  0.87419256  0.05848854     0.98100
C988        C  0.32501771  0.93433517  0.11920320     1.04000
O989        O  0.34812739  0.87238036  0.07535264    -0.78600
C990        C  0.25560974  0.82259981  0.10863591     1.02300
Fe991      Fe  0.15774672  0.69240343  0.15822497     1.65800
Fe992      Fe  0.10581827  0.71346002  0.11002840     1.73200
Fe993      Fe  0.11930960  0.64014861  0.12151516     1.54400
O994        O  0.16311279  0.62814334  0.11910658    -0.82300
O995        O  0.06657569  0.69381714  0.11861243    -0.80600
O996        O  0.18713669  0.66328941  0.14210785    -0.84800
O997        O  0.14212055  0.66392430  0.18845876    -0.79700
O998        O  0.12082650  0.64630965  0.07660500    -0.81400
O999        O  0.09931378  0.73854691  0.14690692    -0.84200
C1000       C  0.12606967  0.64160451  0.18875333     0.96600
C1001       C  0.18655243  0.63989737  0.12770601     1.04000
O1002       O  0.12760985  0.68197479  0.12984580    -1.13200
O1003       O  0.14273807  0.73717145  0.09947984    -0.75600
O1004       O  0.17623746  0.72251010  0.13129403    -0.79100
O1005       O  0.11652458  0.62951014  0.16572544    -0.79800
C1006       C  0.16821508  0.73819804  0.11012120     0.95500
O1007       O  0.13282182  0.72327268  0.17822655    -0.77700
O1008       O  0.10974886  0.69315596  0.07044631    -0.82900
C1009       C  0.05755451  0.66801950  0.12238157     0.98100
C1010       C  0.11648747  0.66830185  0.06038923     1.04000
O1011       O  0.07449579  0.64613334  0.12258360    -0.78600
C1012       C  0.11179518  0.73964366  0.17142696     1.02300
Fe1013     Fe  0.33301558  0.65987228  0.18956693     1.65800
Fe1014     Fe  0.38334800  0.61139317  0.21292614     1.73200
Fe1015     Fe  0.37165122  0.62055894  0.13946634     1.54400
O1016       O  0.32783066  0.61960052  0.12671864    -0.82300
O1017       O  0.42295052  0.62081637  0.19492123    -0.80600
O1018       O  0.30346254  0.64061557  0.16304642    -0.84800
O1019       O  0.34664360  0.68774463  0.15793305    -0.79700
O1020       O  0.36874709  0.57600957  0.14676568    -0.81400
O1021       O  0.38733477  0.64872755  0.23798320    -0.84200
C1022       C  0.36431099  0.68732239  0.13692456     0.96600
C1023       C  0.30423871  0.62677428  0.13932074     1.04000
O1024       O  0.36269084  0.63051386  0.18057253    -1.13200
O1025       O  0.34553784  0.59995647  0.23432968    -0.75600
O1026       O  0.31527829  0.63597005  0.22258234    -0.79100
O1027       O  0.37627539  0.66414760  0.12760133    -0.79800
C1028       C  0.32139142  0.61315312  0.23672502     0.95500
O1029       O  0.35938849  0.68236569  0.21743447    -0.77700
O1030       O  0.38257760  0.57143256  0.19290352    -0.82900
C1031       C  0.43277843  0.62149009  0.16916306     0.98100
C1032       C  0.37598568  0.56050364  0.16845248     1.04000
O1033       O  0.41642178  0.61979310  0.14688301    -0.78600
C1034       C  0.37791455  0.67462703  0.23619786     1.02300
Fe1035     Fe  0.18687260  0.66117938  0.33459727     1.65800
Fe1036     Fe  0.21036067  0.61046530  0.38277041     1.73200
Fe1037     Fe  0.13660535  0.62336512  0.37437505     1.54400
O1038       O  0.12574735  0.66765010  0.37899320    -0.82300
O1039       O  0.18988835  0.57132246  0.37844228    -0.80600
O1040       O  0.15758876  0.69074829  0.35091763    -0.84800
O1041       O  0.15765918  0.64456044  0.30583456    -0.79700
O1042       O  0.14527458  0.62312329  0.41901754    -0.81400
O1043       O  0.23170797  0.60095690  0.34453432    -0.84200
C1044       C  0.13416945  0.63047300  0.30705828     0.96600
C1045       C  0.13620497  0.69085055  0.36818239     1.04000
O1046       O  0.17787161  0.63164306  0.36398894    -1.13200
O1047       O  0.23573292  0.64704978  0.38921748    -0.75600
O1048       O  0.21748563  0.68103575  0.35999555    -0.79100
O1049       O  0.12281990  0.62213038  0.33083897    -0.79800
C1050       C  0.23546446  0.67267149  0.37909085     0.95500
O1051       O  0.21770817  0.63589202  0.31427936    -0.77700
O1052       O  0.19322787  0.61721263  0.42317009    -0.82900
C1053       C  0.16462074  0.56180191  0.37321901     0.98100
C1054       C  0.16833824  0.62129697  0.43427170     1.04000
O1055       O  0.14247244  0.57836543  0.37126016    -0.78600
C1056       C  0.23273723  0.61353654  0.32013273     1.02300
C1057       C  0.27006282  0.60323642  0.24816851    -0.26900
C1058       C  0.29919512  0.60289096  0.25727494    -0.15000
C1059       C  0.30576021  0.59893286  0.28693302     0.35600
C1060       C  0.28297329  0.59930793  0.30729309    -0.26400
C1061       C  0.25406872  0.60366120  0.29834299    -0.15600
C1062       C  0.24744856  0.60354999  0.26834288     0.36700
N1063       N  0.21811484  0.60428286  0.25775030    -0.89900
H1064       H  0.26490758  0.60538178  0.22526648     0.17800
H1065       H  0.28804764  0.59886489  0.33029608     0.17800
N1066       N  0.33549634  0.59740809  0.29646654    -0.88900
H1067       H  0.20824363  0.62386648  0.26376250     0.35200
H1068       H  0.20669149  0.58709023  0.26716162     0.40300
H1069       H  0.34431503  0.57805838  0.28829251     0.39900
H1070       H  0.33655684  0.59587850  0.31911025     0.34800
C1071       C  0.23365640  0.63993645  0.10198825    -0.26900
C1072       C  0.21498924  0.62634431  0.12189888    -0.15000
C1073       C  0.22663523  0.60682352  0.14228198     0.35600
C1074       C  0.25683695  0.60325012  0.14433540    -0.26400
C1075       C  0.27566688  0.61959123  0.12686175    -0.15600
C1076       C  0.26406436  0.63670489  0.10429012     0.36700
N1077       N  0.28316995  0.65328747  0.08609936    -0.89900
H1078       H  0.22468486  0.65542329  0.08665182     0.17800
H1079       H  0.26564827  0.59042220  0.16204665     0.17800
N1080       N  0.20807331  0.59320978  0.16312296    -0.88900
H1081       H  0.27121038  0.66560218  0.07117903     0.35200
H1082       H  0.29557674  0.63851827  0.07399090     0.40300
H1083       H  0.21475909  0.59976540  0.18385949     0.39900
H1084       H  0.21111639  0.57071003  0.16155183     0.34800
C1085       C  0.13242529  0.60349714  0.26067959    -0.26900
C1086       C  0.12016308  0.62494705  0.27879581    -0.15000
C1087       C  0.10351439  0.64741561  0.26634277     0.35600
C1088       C  0.10252809  0.65015852  0.23595309    -0.26400
C1089       C  0.11792917  0.63087454  0.21786282    -0.15600
C1090       C  0.13152809  0.60629687  0.23016165     0.36700
N1091       N  0.14643298  0.58573640  0.21187594    -0.89900
H1092       H  0.14556106  0.58643661  0.27032893     0.17800
H1093       H  0.09211284  0.66907581  0.22644166     0.17800
N1094       N  0.09062578  0.66928062  0.28469462    -0.88900
H1095       H  0.15534373  0.56892985  0.22434443     0.35200
H1096       H  0.16389576  0.59653636  0.20231064     0.40300
H1097       H  0.07472243  0.65909947  0.29725463     0.39900
H1098       H  0.07993180  0.68499835  0.27219825     0.34800
C1099       C  0.20521517  0.80953362  0.09393469    -0.26900
C1100       C  0.23427929  0.80102545  0.09809266    -0.15000
C1101       C  0.24140438  0.77115842  0.09828378     0.35600
C1102       C  0.21906210  0.75054902  0.09880771    -0.26400
C1103       C  0.18977685  0.75919287  0.09901364    -0.15600
C1104       C  0.18270736  0.78879968  0.09454251     0.36700
N1105       N  0.15284674  0.79799701  0.09307336    -0.89900
H1106       H  0.19980015  0.83249017  0.09328300     0.17800
H1107       H  0.22450385  0.72771454  0.10129072     0.17800
N1108       N  0.27129919  0.76201926  0.09982826    -0.88900
H1109       H  0.15149573  0.82042148  0.08950640     0.35200
H1110       H  0.14354293  0.79425303  0.11340211     0.40300
H1111       H  0.28138671  0.76870221  0.08064131     0.39900
H1112       H  0.27283994  0.73931981  0.10034549     0.34800
C1113       C  0.35178155  0.75887564  0.10080459    -0.26900
C1114       C  0.36711101  0.77701990  0.12007272    -0.15000
C1115       C  0.38736343  0.76440946  0.13952667     0.35600
C1116       C  0.38954236  0.73399274  0.14115158    -0.26400
C1117       C  0.37136399  0.71593825  0.12457209    -0.15600
C1118       C  0.35326881  0.72852342  0.10327202     0.36700
N1119       N  0.33416892  0.71111081  0.08588480    -0.89900
H1120       H  0.33594843  0.76831876  0.08610333     0.17800
H1121       H  0.40315732  0.72445563  0.15786876     0.17800
N1122       N  0.40363994  0.78151703  0.16005075    -0.88900
H1123       H  0.32010350  0.69990045  0.09968374     0.35200
H1124       H  0.34675905  0.69584636  0.07460244     0.40300
H1125       H  0.40031017  0.80375090  0.15681341     0.39900
H1126       H  0.42570306  0.77771213  0.15606950     0.34800
C1127       C  0.10497040  0.81160881  0.20964681    -0.26900
C1128       C  0.10560320  0.80231243  0.23870098    -0.15000
C1129       C  0.10171914  0.77242821  0.24483286     0.35600
C1130       C  0.10051438  0.75241152  0.22206611    -0.26400
C1131       C  0.10306727  0.76144997  0.19315118    -0.15600
C1132       C  0.10379077  0.79140000  0.18670659     0.36700
N1133       N  0.10601183  0.80100963  0.15711829    -0.89900
H1134       H  0.10768143  0.83449663  0.20476391     0.17800
H1135       H  0.09938102  0.72939374  0.22706491     0.17800
N1136       N  0.09868083  0.76173161  0.27382304    -0.88900
H1137       H  0.10787110  0.82365935  0.15621334     0.35200
H1138       H  0.08650993  0.79575514  0.14669779     0.40300
H1139       H  0.08154294  0.77311265  0.28348563     0.39900
H1140       H  0.11780169  0.76540930  0.28547999     0.34800
C1141       C  0.13868852  0.76827887  0.39292556    -0.26900
C1142       C  0.12010362  0.78134247  0.37255116    -0.15000
C1143       C  0.10037164  0.76343701  0.35704315     0.35600
C1144       C  0.10348224  0.73295482  0.35814375    -0.26400
C1145       C  0.12456062  0.71996669  0.37597318    -0.15600
C1146       C  0.14048884  0.73774734  0.39518193     0.36700
N1147       N  0.16003651  0.72475977  0.41563964    -0.89900
H1148       H  0.15364994  0.78163719  0.40529789     0.17800
H1149       H  0.09082625  0.71954536  0.34344995     0.17800
N1150       N  0.07842157  0.77552855  0.33836700    -0.88900
H1151       H  0.15357201  0.73127379  0.43644126     0.35200
H1152       H  0.18071927  0.73322463  0.41201706     0.40300
H1153       H  0.07788738  0.79820339  0.33985224     0.39900
H1154       H  0.05826533  0.76837167  0.34595090     0.34800
C1155       C  0.18503555  0.89973459  0.20935125    -0.26900
C1156       C  0.19379419  0.89221575  0.23767227    -0.15000
C1157       C  0.22354959  0.88793484  0.24346597     0.35600
C1158       C  0.24347813  0.88802414  0.22066446    -0.26400
C1159       C  0.23439614  0.89168737  0.19178044    -0.15600
C1160       C  0.20511835  0.89921794  0.18611469     0.36700
N1161       N  0.19545922  0.90416968  0.15682390    -0.89900
H1162       H  0.16216206  0.90327901  0.20487851     0.17800
H1163       H  0.26598055  0.88282511  0.22541238     0.17800
N1164       N  0.23348019  0.88191436  0.27236362    -0.88900
H1165       H  0.17340705  0.90977650  0.15654633     0.35200
H1166       H  0.19731832  0.88450086  0.14549050     0.40300
H1167       H  0.24917753  0.89740970  0.27781117     0.39900
H1168       H  0.24359372  0.86149974  0.27229949     0.34800
C1169       C  0.38664922  0.85876246  0.22793397    -0.26900
C1170       C  0.36282108  0.87400712  0.21655501    -0.15000
C1171       C  0.34493960  0.89039348  0.23542637     0.35600
C1172       C  0.34908578  0.88838695  0.26564140    -0.26400
C1173       C  0.37060619  0.87011961  0.27720883    -0.15600
C1174       C  0.39075186  0.85660723  0.25812927     0.36700
N1175       N  0.41444936  0.83910829  0.26870875    -0.89900
H1176       H  0.40047882  0.84620026  0.21350684     0.17800
H1177       H  0.33346593  0.89849000  0.28016465     0.17800
N1178       N  0.32100493  0.90689008  0.22381361    -0.88900
H1179       H  0.41053120  0.81757454  0.26256944     0.35200
H1180       H  0.41563924  0.83965264  0.29137522     0.40300
H1181       H  0.32967889  0.92334216  0.21083024     0.39900
H1182       H  0.30950363  0.91723047  0.24051422     0.34800
C1183       C  0.39055417  0.74646155  0.27416825    -0.26900
C1184       C  0.38734821  0.73792017  0.30317193    -0.15000
C1185       C  0.38633638  0.70804903  0.31003482     0.35600
C1186       C  0.38636662  0.68743256  0.28764117    -0.26400
C1187       C  0.38654645  0.69613194  0.25841170    -0.15600
C1188       C  0.39024025  0.72595115  0.25172412     0.36700
N1189       N  0.39335224  0.73610438  0.22247585    -0.89900
H1190       H  0.39140434  0.76936812  0.26880089     0.17800
H1191       H  0.38354322  0.66468514  0.29310349     0.17800
N1192       N  0.38262248  0.69822385  0.33929272    -0.88900
H1193       H  0.37417828  0.73229171  0.21094888     0.35200
H1194       H  0.41036919  0.72458202  0.21267940     0.40300
H1195       H  0.36343878  0.70730116  0.34745969     0.39900
H1196       H  0.40004911  0.70586861  0.35171523     0.34800
C1197       C  0.26585356  0.89495002  0.35380391    -0.26900
C1198       C  0.27801074  0.87603545  0.37433675    -0.15000
C1199       C  0.25955678  0.86297240  0.39504888     0.35600
C1200       C  0.22924212  0.86529928  0.39202631    -0.26400
C1201       C  0.21705761  0.88113399  0.36899975    -0.15600
C1202       C  0.23558775  0.89825836  0.35139805     0.36700
N1203       N  0.22434247  0.91723903  0.32924362    -0.89900
H1204       H  0.27976946  0.90523995  0.33788080     0.17800
H1205       H  0.21534708  0.85235106  0.40587823     0.17800
N1206       N  0.27112530  0.84553991  0.41807783    -0.88900
H1207       H  0.23177722  0.93822393  0.33385826     0.35200
H1208       H  0.20167535  0.91843715  0.33013514     0.40300
H1209       H  0.28430768  0.85890875  0.43085001     0.39900
H1210       H  0.28432533  0.82932441  0.40911987     0.34800
C1211       C  0.24852520  0.72274639  0.39285417    -0.26900
C1212       C  0.25743312  0.69391507  0.38858608    -0.15000
C1213       C  0.28736858  0.68717525  0.38834892     0.35600
C1214       C  0.30767896  0.71000649  0.38935456    -0.26400
C1215       C  0.29850513  0.73922894  0.39023479    -0.15600
C1216       C  0.26857707  0.74534045  0.39403313     0.36700
N1217       N  0.25779017  0.77412139  0.39931220    -0.89900
H1218       H  0.22562931  0.72798791  0.39354682     0.17800
H1219       H  0.33059128  0.70503134  0.38718208     0.17800
N1220       N  0.29695553  0.65762734  0.38437015    -0.88900
H1221       H  0.26162729  0.78727136  0.38129147     0.35200
H1222       H  0.26865028  0.78245612  0.41744818     0.40300
H1223       H  0.29127712  0.64608549  0.40305044     0.39900
H1224       H  0.31962675  0.65664358  0.38294277     0.34800
C1225       C  0.30585096  0.01284378  0.13565907    -0.26900
C1226       C  0.32944527  0.02792043  0.12362890    -0.15000
C1227       C  0.35337309  0.01181804  0.11268781     0.35600
C1228       C  0.35236932  0.98108013  0.11278197    -0.26400
C1229       C  0.32782526  0.96626531  0.12318348    -0.15600
C1230       C  0.30484507  0.98238379  0.13576038     0.36700
N1231       N  0.28038851  0.96771092  0.14848042    -0.89900
H1232       H  0.28779540  0.02495045  0.14485329     0.17800
H1233       H  0.37014043  0.96871004  0.10339956     0.17800
N1234       N  0.37801965  0.02655674  0.10053030    -0.88900
H1235       H  0.26524560  0.98268409  0.15657611     0.35200
H1236       H  0.28805365  0.95587217  0.16630746     0.40300
H1237       H  0.37095951  0.03734171  0.08181532     0.39900
H1238       H  0.39380748  0.01155644  0.09383352     0.34800
C1239       C  0.19176970  0.21435847  0.10150864    -0.26900
C1240       C  0.19964292  0.24289815  0.10915029    -0.15000
C1241       C  0.22917881  0.24924390  0.11434804     0.35600
C1242       C  0.24960531  0.22669968  0.11510024    -0.26400
C1243       C  0.24126938  0.19769090  0.11076604    -0.15600
C1244       C  0.21229792  0.19151002  0.10254596     0.36700
N1245       N  0.20330970  0.16200322  0.09742453    -0.89900
H1246       H  0.16912463  0.20939817  0.09735490     0.17800
H1247       H  0.27188224  0.23178290  0.12084726     0.17800
N1248       N  0.23835611  0.27846266  0.12015056    -0.88900
H1249       H  0.18142859  0.16133497  0.09126849     0.35200
H1250       H  0.20483270  0.15084874  0.11714569     0.40300
H1251       H  0.25415564  0.28400618  0.10483262     0.39900
H1252       H  0.24806746  0.27897617  0.14070403     0.34800
C1253       C  0.13432147  0.98493287  0.35130058    -0.26900
C1254       C  0.11677377  0.97028852  0.33095273    -0.15000
C1255       C  0.09907381  0.98697231  0.31213341     0.35600
C1256       C  0.10001960  0.01733420  0.31313601    -0.26400
C1257       C  0.11818154  0.03220450  0.33264522    -0.15600
C1258       C  0.13528985  0.01557617  0.35231794     0.36700
N1259       N  0.15451934  0.02894718  0.37284910    -0.89900
H1260       H  0.14801465  0.97253553  0.36594830     0.17800
H1261       H  0.08620490  0.02935543  0.29827770     0.17800
N1262       N  0.07968167  0.97324589  0.29196099    -0.88900
H1263       H  0.14224263  0.04166078  0.38718054     0.35200
H1264       H  0.16902264  0.04228134  0.36160988     0.40300
H1265       H  0.08530258  0.97991923  0.27100816     0.39900
H1266       H  0.05860806  0.98070459  0.29624050     0.34800
C1267       C  0.21985561  0.10360624  0.24719351    -0.26900
C1268       C  0.19140363  0.10957794  0.23820935    -0.15000
C1269       C  0.18521518  0.11251275  0.20837764     0.35600
C1270       C  0.20821875  0.11128255  0.18821250    -0.26400
C1271       C  0.23716217  0.10775269  0.19753654    -0.15600
C1272       C  0.24267723  0.10253838  0.22731648     0.36700
N1273       N  0.27113695  0.09602775  0.23808835    -0.89900
H1274       H  0.22466341  0.10141464  0.27009671     0.17800
H1275       H  0.20381793  0.11551086  0.16546666     0.17800
N1276       N  0.15616732  0.11936241  0.19901135    -0.88900
H1277       H  0.28492341  0.11358905  0.23425943     0.35200
H1278       H  0.27871271  0.07769104  0.22694763     0.40300
H1279       H  0.14307194  0.10146444  0.20379704     0.39900
H1280       H  0.15547471  0.12199115  0.17645756     0.34800
C1281       C  0.11068308  0.25319223  0.22864984    -0.26900
C1282       C  0.10785341  0.24407248  0.19960038    -0.15000
C1283       C  0.10093664  0.21472200  0.19371136     0.35600
C1284       C  0.10091734  0.19455745  0.21669714    -0.26400
C1285       C  0.10756299  0.20324589  0.24527538    -0.15600
C1286       C  0.11057890  0.23314335  0.25143912     0.36700
N1287       N  0.11472029  0.24316680  0.28067398    -0.89900
H1288       H  0.11490935  0.27585415  0.23363881     0.17800
H1289       H  0.09796292  0.17167391  0.21185439     0.17800
N1290       N  0.09629190  0.20502944  0.16435708    -0.88900
H1291       H  0.09815135  0.25804184  0.28548305     0.35200
H1292       H  0.13453759  0.25421169  0.28172458     0.40300
H1293       H  0.07697144  0.21460962  0.15706908     0.39900
H1294       H  0.09293855  0.18254552  0.16372697     0.34800
C1295       C  0.26800931  0.10196213  0.35018842    -0.26900
C1296       C  0.28108592  0.11780641  0.37267634    -0.15000
C1297       C  0.26354571  0.12830295  0.39552904     0.35600
C1298       C  0.23295969  0.12751080  0.39287498    -0.26400
C1299       C  0.21994980  0.11544088  0.36801028    -0.15600
C1300       C  0.23768477  0.09981573  0.34813151     0.36700
N1301       N  0.22556525  0.08375105  0.32417238    -0.89900
H1302       H  0.28130889  0.09330977  0.33272715     0.17800
H1303       H  0.21968276  0.13895568  0.40866177     0.17800
N1304       N  0.27675342  0.14180401  0.42028422    -0.88900
H1305       H  0.20292040  0.08281680  0.32560555     0.35200
H1306       H  0.23278451  0.06223730  0.32600734     0.40300
H1307       H  0.27029762  0.13028469  0.43872254     0.39900
H1308       H  0.26851467  0.16289129  0.42222558     0.34800
C1309       C  0.39606635  0.13437739  0.23060684    -0.26900
C1310       C  0.37514089  0.11605751  0.21826918    -0.15000
C1311       C  0.35978239  0.09677117  0.23642117     0.35600
C1312       C  0.36154927  0.10011201  0.26685401    -0.26400
C1313       C  0.37939977  0.12157180  0.27913069    -0.15600
C1314       C  0.39896165  0.13668350  0.26089506     0.36700
N1315       N  0.42030592  0.15632947  0.27242895    -0.89900
H1316       H  0.40831236  0.14896050  0.21681656     0.17800
H1317       H  0.34696235  0.08797753  0.28072954     0.17800
N1318       N  0.34129626  0.07498725  0.22375774    -0.88900
H1319       H  0.44073209  0.14875980  0.26585252     0.35200
H1320       H  0.42046974  0.15587526  0.29511682     0.40300
H1321       H  0.32527106  0.08540236  0.21148873     0.39900
H1322       H  0.33072587  0.06318463  0.23998386     0.34800
C1323       C  0.35802518  0.51340305  0.14714612    -0.26900
C1324       C  0.37728733  0.52830284  0.16570533    -0.15000
C1325       C  0.39722198  0.51211130  0.18266922     0.35600
C1326       C  0.39648324  0.48170964  0.18181225    -0.26400
C1327       C  0.37657095  0.46668345  0.16425725    -0.15600
C1328       C  0.35730363  0.48265390  0.14640698     0.36700
N1329       N  0.33649660  0.46775106  0.12847284    -0.89900
H1330       H  0.34277173  0.52573739  0.13406799     0.17800
H1331       H  0.41166722  0.46955413  0.19515943     0.17800
N1332       N  0.41828561  0.52656983  0.20075796    -0.88900
H1333       H  0.32398635  0.48268020  0.11671152     0.35200
H1334       H  0.32216921  0.45681390  0.14224264     0.40300
H1335       H  0.43244522  0.53783963  0.18708340     0.39900
H1336       H  0.43095628  0.51150381  0.21217386     0.34800
C1337       C  0.35909985  0.26417066  0.10490728    -0.26900
C1338       C  0.37707509  0.27750779  0.12561465    -0.15000
C1339       C  0.39568710  0.25980697  0.14279548     0.35600
C1340       C  0.39291336  0.22936245  0.14162436    -0.26400
C1341       C  0.37230080  0.21626186  0.12343114    -0.15600
C1342       C  0.35656313  0.23370726  0.10375813     0.36700
N1343       N  0.33591846  0.22058334  0.08446212    -0.89900
H1344       H  0.34452040  0.27739454  0.09190626     0.17800
H1345       H  0.40487454  0.21613613  0.15705001     0.17800
N1346       N  0.41542103  0.27204089  0.16376999    -0.88900
H1347       H  0.34141150  0.22642355  0.06323263     0.35200
H1348       H  0.31539986  0.22930814  0.08900301     0.40300
H1349       H  0.41592460  0.29470770  0.16232554     0.39900
H1350       H  0.43634175  0.26491255  0.15835665     0.34800
C1351       C  0.26482446  0.35957922  0.10334234    -0.26900
C1352       C  0.27768212  0.37664782  0.12508948    -0.15000
C1353       C  0.26005778  0.39608021  0.14126072     0.35600
C1354       C  0.22958477  0.39517847  0.13805993    -0.26400
C1355       C  0.21650458  0.37512930  0.11917958    -0.15600
C1356       C  0.23431730  0.35867754  0.10017405     0.36700
N1357       N  0.22124096  0.33946059  0.07919956    -0.89900
H1358       H  0.27829591  0.34468328  0.09093286     0.17800
H1359       H  0.21599306  0.40767856  0.15275973     0.17800
N1360       N  0.27307030  0.41527059  0.16229902    -0.88900
H1361       H  0.23725591  0.32898005  0.06687357     0.35200
H1362       H  0.21012143  0.32316717  0.09036589     0.40300
H1363       H  0.28198382  0.40261527  0.17891777     0.39900
H1364       H  0.25722787  0.42845661  0.17199201     0.34800
C1365       C  0.39025180  0.27183131  0.25066923    -0.26900
C1366       C  0.38649808  0.30095575  0.25908909    -0.15000
C1367       C  0.38630930  0.30804058  0.28908342     0.35600
C1368       C  0.38734997  0.28572699  0.30970890    -0.26400
C1369       C  0.38795236  0.25648276  0.30102538    -0.15600
C1370       C  0.39072735  0.24962007  0.27123207     0.36700
N1371       N  0.39386104  0.22026945  0.26124920    -0.89900
H1372       H  0.39110083  0.26611337  0.22780524     0.17800
H1373       H  0.38504640  0.29118322  0.33253037     0.17800
N1374       N  0.38254332  0.33728211  0.29926110    -0.88900
H1375       H  0.37544017  0.20838152  0.26696593     0.35200
H1376       H  0.41196005  0.21139479  0.27173440     0.40300
H1377       H  0.36305633  0.34546708  0.29085281     0.39900
H1378       H  0.39982591  0.34984270  0.29167046     0.34800
C1379       C  0.18434112  0.48337808  0.35759807    -0.26900
C1380       C  0.16106498  0.46832687  0.37010215    -0.15000
C1381       C  0.13688311  0.48439667  0.38064383     0.35600
C1382       C  0.13750218  0.51499044  0.38016397    -0.26400
C1383       C  0.16179950  0.52989440  0.36936076    -0.15600
C1384       C  0.18484327  0.51375601  0.35692943     0.36700
N1385       N  0.20899956  0.52818030  0.34365576    -0.89900
H1386       H  0.20264321  0.47145400  0.34861930     0.17800
H1387       H  0.11954765  0.52710768  0.38953154     0.17800
N1388       N  0.11215946  0.47042270  0.39324305    -0.88900
H1389       H  0.21037064  0.52126999  0.32203130     0.35200
H1390       H  0.22799093  0.52161792  0.35433990     0.40300
H1391       H  0.11926543  0.45728022  0.41036639     0.39900
H1392       H  0.10242239  0.45731556  0.37742524     0.34800
C1393       C  0.10011000  0.36080146  0.26559517    -0.26900
C1394       C  0.12019429  0.37951488  0.27882676    -0.15000
C1395       C  0.13564905  0.39945669  0.26118667     0.35600
C1396       C  0.13450429  0.39668778  0.23077357    -0.26400
C1397       C  0.11752210  0.37509575  0.21763769    -0.15600
C1398       C  0.09865377  0.35842128  0.23521079     0.36700
N1399       N  0.07968198  0.33706125  0.22276421    -0.89900
H1400       H  0.08814368  0.34543635  0.27877149     0.17800
H1401       H  0.14909346  0.40956763  0.21757963     0.17800
N1402       N  0.15489402  0.42079473  0.27351523    -0.88900
H1403       H  0.09213353  0.32172185  0.21145503     0.35200
H1404       H  0.06604163  0.34754784  0.20788654     0.40300
H1405       H  0.15340095  0.42105885  0.29616707     0.39900
H1406       H  0.14769862  0.44124509  0.26661442     0.34800
C1407       C  0.14269738  0.26494191  0.39530651    -0.26900
C1408       C  0.12341135  0.28053707  0.37744056    -0.15000
C1409       C  0.10218265  0.26521754  0.36133496     0.35600
C1410       C  0.10286589  0.23466511  0.36108041    -0.26400
C1411       C  0.12470609  0.21923091  0.37589850    -0.15600
C1412       C  0.14402905  0.23453221  0.39412186     0.36700
N1413       N  0.16670702  0.21987450  0.40971665    -0.89900
H1414       H  0.15934815  0.27650591  0.40735898     0.17800
H1415       H  0.08826128  0.22309579  0.34661969     0.17800
N1416       N  0.08150632  0.27987809  0.34299296    -0.88900
H1417       H  0.18017602  0.20915804  0.39482930     0.35200
H1418       H  0.15712210  0.20426453  0.42308643     0.40300
H1419       H  0.08300787  0.30243074  0.34537049     0.39900
H1420       H  0.06073400  0.27424646  0.35021204     0.34800
C1421       C  0.30451396  0.28376245  0.38674820    -0.26900
C1422       C  0.29588145  0.25450570  0.38452236    -0.15000
C1423       C  0.26577593  0.24805836  0.38550256     0.35600
C1424       C  0.24538935  0.27066309  0.38556843    -0.26400
C1425       C  0.25400889  0.29992134  0.38443749    -0.15600
C1426       C  0.28393022  0.30657545  0.38675172     0.36700
N1427       N  0.29349188  0.33631840  0.38699415    -0.89900
H1428       H  0.32746653  0.28899814  0.38651345     0.17800
H1429       H  0.22247646  0.26519136  0.38493057     0.17800
N1430       N  0.25508822  0.21885950  0.38654740    -0.88900
H1431       H  0.31619906  0.33736848  0.38713989     0.35200
H1432       H  0.28657743  0.34558872  0.40658523     0.40300
H1433       H  0.26545363  0.20826851  0.40372522     0.39900
H1434       H  0.25983157  0.20814745  0.36709349     0.34800
C1435       C  0.26759579  0.38351970  0.24525387    -0.26900
C1436       C  0.29600987  0.39115037  0.25333185    -0.15000
C1437       C  0.30105878  0.40224330  0.28159757     0.35600
C1438       C  0.27846462  0.40195857  0.30203610    -0.26400
C1439       C  0.25113834  0.39045589  0.29480044    -0.15600
C1440       C  0.24515431  0.38287630  0.26566119     0.36700
N1441       N  0.21670582  0.37297730  0.25727994    -0.89900
H1442       H  0.26332688  0.37591120  0.22334480     0.17800
H1443       H  0.28306989  0.40830632  0.32426418     0.17800
N1444       N  0.32917505  0.41191145  0.29078632    -0.88900
H1445       H  0.21613003  0.36759808  0.23519071     0.35200
H1446       H  0.20238336  0.39042345  0.26008568     0.40300
H1447       H  0.33553240  0.42903369  0.27733677     0.39900
H1448       H  0.34397542  0.39478244  0.28842964     0.34800
C1449       C  0.51108359  0.61115179  0.14312545    -0.26900
C1450       C  0.52627785  0.62367280  0.16645692    -0.15000
C1451       C  0.51068346  0.63797626  0.18860115     0.35600
C1452       C  0.48031807  0.63810848  0.18808292    -0.26400
C1453       C  0.46478627  0.62417321  0.16576657    -0.15600
C1454       C  0.48037171  0.61122046  0.14250651     0.36700
N1455       N  0.46518157  0.59689406  0.11923775    -0.89900
H1456       H  0.52315516  0.60032543  0.12599647     0.17800
H1457       H  0.46880299  0.64875131  0.20571742     0.17800
N1458       N  0.52571462  0.65244897  0.21177847    -0.88900
H1459       H  0.47989383  0.58689560  0.10503707     0.35200
H1460       H  0.45456377  0.61297035  0.10715523     0.40300
H1461       H  0.51904079  0.64327439  0.23142718     0.39900
H1462       H  0.51944086  0.67433832  0.21176816     0.34800
C1463       C  0.70905590  0.60700716  0.30958205    -0.26900
C1464       C  0.73817904  0.60945068  0.30083493    -0.15000
C1465       C  0.74486707  0.60874880  0.27087436     0.35600
C1466       C  0.72241071  0.60916216  0.25050836    -0.26400
C1467       C  0.69319231  0.60996931  0.25918857    -0.15600
C1468       C  0.68636192  0.60719571  0.28900869     0.36700
N1469       N  0.65658291  0.60707819  0.29847355    -0.89900
H1470       H  0.70388069  0.60720808  0.33255269     0.17800
H1471       H  0.72791569  0.61056666  0.22769722     0.17800
N1472       N  0.77420918  0.60780821  0.26044892    -0.88900
H1473       H  0.65542880  0.60674610  0.32116135     0.35200
H1474       H  0.64732750  0.58759241  0.29129914     0.40300
H1475       H  0.78476689  0.59019767  0.27023640     0.39900
H1476       H  0.78492196  0.62697923  0.26612932     0.34800
C1477       C  0.51289160  0.85021230  0.36127374    -0.26900
C1478       C  0.52749118  0.83114707  0.38027432    -0.15000
C1479       C  0.51069091  0.81388789  0.39943692     0.35600
C1480       C  0.48044119  0.81496839  0.39815177    -0.26400
C1481       C  0.46567987  0.83272083  0.37816279    -0.15600
C1482       C  0.48213579  0.85126055  0.36003390     0.36700
N1483       N  0.46780636  0.87018846  0.33971768    -0.89900
H1484       H  0.52550010  0.86374615  0.34678030     0.17800
H1485       H  0.46829694  0.80129838  0.41294265     0.17800
N1486       N  0.52351234  0.79529960  0.42094867    -0.88900
H1487       H  0.48307261  0.88103950  0.32692644     0.35200
H1488       H  0.45705397  0.88627665  0.35172666     0.40300
H1489       H  0.53819293  0.80738882  0.43341393     0.39900
H1490       H  0.53430925  0.77807683  0.41072491     0.34800
C1491       C  0.59947152  0.72444137  0.25212056    -0.26900
C1492       C  0.59878521  0.69513327  0.26029370    -0.15000
C1493       C  0.59564226  0.68786640  0.28988817     0.35600
C1494       C  0.59725129  0.71009507  0.31099262    -0.26400
C1495       C  0.60199418  0.73910468  0.30276916    -0.15600
C1496       C  0.60122534  0.74640168  0.27293645     0.36700
N1497       N  0.60260095  0.77587151  0.26308421    -0.89900
H1498       H  0.60105287  0.73018823  0.22932976     0.17800
H1499       H  0.59734170  0.70445524  0.33384303     0.17800
N1500       N  0.59361268  0.65791167  0.29848167    -0.88900
H1501       H  0.62278426  0.78478022  0.26830540     0.35200
H1502       H  0.58623215  0.78759444  0.27366140     0.40300
H1503       H  0.57385500  0.64994873  0.29056597     0.39900
H1504       H  0.59265453  0.65625195  0.32111635     0.34800
C1505       C  0.72457712  0.74777023  0.39162669    -0.26900
C1506       C  0.69540160  0.73909474  0.39202357    -0.15000
C1507       C  0.68875603  0.70937812  0.39659640     0.35600
C1508       C  0.71133126  0.68885626  0.39757683    -0.26400
C1509       C  0.74028315  0.69734611  0.39323371    -0.15600
C1510       C  0.74698585  0.72722700  0.39195568     0.36700
N1511       N  0.77646721  0.73675713  0.38927325    -0.89900
H1512       H  0.73003467  0.77051670  0.38881383     0.17800
H1513       H  0.70590163  0.66595385  0.39866971     0.17800
N1514       N  0.65943133  0.69904245  0.39769530    -0.88900
H1515       H  0.78085345  0.75099405  0.40647781     0.35200
H1516       H  0.77840179  0.74842701  0.36990080     0.40300
H1517       H  0.64886715  0.70470024  0.37837787     0.39900
H1518       H  0.64888724  0.70912618  0.41514790     0.34800
C1519       C  0.59782482  0.73879118  0.14241513    -0.26900
C1520       C  0.61535256  0.71922012  0.12665453    -0.15000
C1521       C  0.63282589  0.72984850  0.10393799     0.35600
C1522       C  0.63508110  0.76012846  0.09986338    -0.26400
C1523       C  0.62077301  0.77978819  0.11851851    -0.15600
C1524       C  0.60035223  0.76906220  0.13853483     0.36700
N1525       N  0.58516073  0.78888967  0.15740260    -0.89900
H1526       H  0.58452514  0.73057313  0.15998796     0.17800
H1527       H  0.65083794  0.76843933  0.08451563     0.17800
N1528       N  0.65051381  0.71014997  0.08718048    -0.88900
H1529       H  0.57182771  0.77751763  0.17180166     0.35200
H1530       H  0.57138776  0.80152548  0.14444028     0.40300
H1531       H  0.66604115  0.70105417  0.10110467     0.39900
H1532       H  0.66206034  0.72147432  0.07127815     0.34800
C1533       C  0.63817661  0.89128331  0.23441134    -0.26900
C1534       C  0.62199859  0.87193967  0.21712509    -0.15000
C1535       C  0.60152928  0.85374317  0.23047789     0.35600
C1536       C  0.59963616  0.85296501  0.26094799    -0.26400
C1537       C  0.61859109  0.86940491  0.27834944    -0.15600
C1538       C  0.63672174  0.89009425  0.26503758     0.36700
N1539       N  0.65543909  0.90786611  0.28263908    -0.89900
H1540       H  0.65408746  0.90522141  0.22414216     0.17800
H1541       H  0.58523585  0.83746465  0.27108532     0.17800
N1542       N  0.58405184  0.83465605  0.21315300    -0.88900
H1543       H  0.64214627  0.92092221  0.29572653     0.35200
H1544       H  0.66731920  0.92209011  0.26957591     0.40300
H1545       H  0.58855235  0.81325625  0.21934609     0.39900
H1546       H  0.56221945  0.83897458  0.21783385     0.34800
C1547       C  0.97939450  0.64108607  0.11518507    -0.26900
C1548       C  0.96428419  0.66458879  0.12775024    -0.15000
C1549       C  0.98017642  0.68629013  0.14248912     0.35600
C1550       C  0.01056524  0.68602906  0.14156812    -0.26400
C1551       C  0.02581774  0.66404260  0.12679369    -0.15600
C1552       C  0.01012924  0.64040128  0.11483704     0.36700
N1553       N  0.02523814  0.61672728  0.10098146    -0.89900
H1554       H  0.96727401  0.62398336  0.10442847     0.17800
H1555       H  0.02232633  0.70362726  0.15196090     0.17800
N1556       N  0.96546733  0.70887445  0.15827752    -0.88900
H1557       H  0.01044165  0.60197738  0.09202880     0.35200
H1558       H  0.03646422  0.60538366  0.11717319     0.40300
H1559       H  0.97178534  0.72891794  0.14969202     0.39900
H1560       H  0.97237546  0.70802899  0.17991699     0.34800
C1561       C  0.78440837  0.81102470  0.09996505    -0.26900
C1562       C  0.75540840  0.80256244  0.10438684    -0.15000
C1563       C  0.74864016  0.77259978  0.10500560     0.35600
C1564       C  0.77098879  0.75206978  0.10476153    -0.26400
C1565       C  0.80024138  0.76049496  0.10373908    -0.15600
C1566       C  0.80704608  0.79014816  0.09958971     0.36700
N1567       N  0.83686867  0.79916335  0.09772537    -0.89900
H1568       H  0.78964201  0.83398370  0.09927399     0.17800
H1569       H  0.76543054  0.72940806  0.10763209     0.17800
N1570       N  0.71928517  0.76234155  0.10677534    -0.88900
H1571       H  0.83815992  0.82180039  0.09596966     0.35200
H1572       H  0.84533941  0.79064235  0.07841354     0.40300
H1573       H  0.70733661  0.77159879  0.08979353     0.39900
H1574       H  0.71016133  0.76878029  0.12653003     0.34800
C1575       C  0.76248126  0.60858742  0.13725817    -0.26900
C1576       C  0.77446973  0.63026828  0.11963992    -0.15000
C1577       C  0.75582112  0.64750971  0.10225993     0.35600
C1578       C  0.72550881  0.64555040  0.10600208    -0.26400
C1579       C  0.71371229  0.62623034  0.12626292    -0.15600
C1580       C  0.73218318  0.60643794  0.14061843     0.36700
N1581       N  0.72028487  0.58580135  0.16055826    -0.89900
H1582       H  0.77659180  0.59541986  0.15081731     0.17800
H1583       H  0.71126459  0.66072367  0.09489287     0.17800
N1584       N  0.76784393  0.66790000  0.08191185    -0.88900
H1585       H  0.72958777  0.58948771  0.18094707     0.35200
H1586       H  0.72657323  0.56501023  0.15370334     0.40300
H1587       H  0.77971622  0.68343304  0.09343167     0.39900
H1588       H  0.75125134  0.67912559  0.07110643     0.34800
C1589       C  0.85389642  0.60306772  0.26080991    -0.26900
C1590       C  0.87012717  0.62225972  0.27822498    -0.15000
C1591       C  0.88991174  0.64137475  0.26494906     0.35600
C1592       C  0.89087709  0.64298173  0.23443179    -0.26400
C1593       C  0.87185506  0.62647022  0.21714918    -0.15600
C1594       C  0.85433083  0.60521699  0.23027847     0.36700
N1595       N  0.83495542  0.58806967  0.21275377    -0.89900
H1596       H  0.83849565  0.58861022  0.27110857     0.17800
H1597       H  0.90412045  0.65952675  0.22422764     0.17800
N1598       N  0.90705160  0.66083150  0.28245448    -0.88900
H1599       H  0.82291878  0.57393502  0.22578126     0.35200
H1600       H  0.84774037  0.57502907  0.19915517     0.40300
H1601       H  0.89289733  0.67541017  0.29275760     0.39900
H1602       H  0.92065835  0.67336575  0.26933276     0.34800
C1603       C  0.98066067  0.89686705  0.31309730    -0.26900
C1604       C  0.96592613  0.87799493  0.33194554    -0.15000
C1605       C  0.98243355  0.85990761  0.35067840     0.35600
C1606       C  0.01318103  0.86068879  0.34943995    -0.26400
C1607       C  0.02762195  0.87903661  0.32984434    -0.15600
C1608       C  0.01106918  0.89771633  0.31193867     0.36700
N1609       N  0.02528024  0.91779378  0.29274140    -0.89900
H1610       H  0.96832040  0.91122786  0.29904938     0.17800
H1611       H  0.02589341  0.84638251  0.36320335     0.17800
N1612       N  0.96813028  0.83993009  0.36985641    -0.88900
H1613       H  0.03659459  0.93261963  0.30572752     0.35200
H1614       H  0.01006432  0.92987207  0.28088852     0.40300
H1615       H  0.95780481  0.85221490  0.38599073     0.39900
H1616       H  0.98339111  0.82687767  0.38056805     0.34800
C1617       C  0.89487205  0.80826494  0.21242135    -0.26900
C1618       C  0.89038179  0.79955706  0.24129705    -0.15000
C1619       C  0.88910926  0.76965005  0.24779072     0.35600
C1620       C  0.88935862  0.74921528  0.22526686    -0.26400
C1621       C  0.88997936  0.75806422  0.19611716    -0.15600
C1622       C  0.89436427  0.78772552  0.18968655     0.36700
N1623       N  0.89571837  0.79737477  0.16015785    -0.89900
H1624       H  0.89588665  0.83121713  0.20718334     0.17800
H1625       H  0.88671331  0.72639972  0.23057751     0.17800
N1626       N  0.88593281  0.75999201  0.27717629    -0.88900
H1627       H  0.91527359  0.80855086  0.15737275     0.35200
H1628       H  0.87864490  0.81204587  0.15667025     0.40300
H1629       H  0.90314101  0.74581701  0.28182691     0.39900
H1630       H  0.86659363  0.74819707  0.27869064     0.34800
C1631       C  0.76635473  0.88162824  0.25154739    -0.26900
C1632       C  0.79559323  0.88390403  0.24313474    -0.15000
C1633       C  0.80231545  0.88883601  0.21359705     0.35600
C1634       C  0.77982476  0.88854678  0.19291723    -0.26400
C1635       C  0.75089683  0.88335958  0.20111961    -0.15600
C1636       C  0.74403713  0.88131444  0.23090114     0.36700
N1637       N  0.71454254  0.87813837  0.24030964    -0.89900
H1638       H  0.76082937  0.87854289  0.27422475     0.17800
H1639       H  0.78525072  0.89046040  0.17010104     0.17800
N1640       N  0.83199807  0.89183455  0.20434546    -0.88900
H1641       H  0.70987755  0.89526682  0.25454354     0.35200
H1642       H  0.71291059  0.85869800  0.25193850     0.40300
H1643       H  0.83958055  0.91168153  0.21245638     0.39900
H1644       H  0.83322673  0.89328849  0.18170896     0.34800
C1645       C  0.76422839  0.86038118  0.39446481    -0.26900
C1646       C  0.77768304  0.87583402  0.37197003    -0.15000
C1647       C  0.76010424  0.89252458  0.35280440     0.35600
C1648       C  0.72966871  0.89031841  0.35434128    -0.26400
C1649       C  0.71632966  0.87223107  0.37479225    -0.15600
C1650       C  0.73370484  0.85852427  0.39600821     0.36700
N1651       N  0.72042228  0.84042490  0.41748769    -0.89900
H1652       H  0.77735074  0.84726484  0.40901671     0.17800
H1653       H  0.71654150  0.90055472  0.33763690     0.17800
N1654       N  0.77237235  0.90953843  0.32967606    -0.88900
H1655       H  0.72657160  0.84817709  0.43796378     0.35200
H1656       H  0.72872178  0.81934405  0.41515919     0.40300
H1657       H  0.79503978  0.90997069  0.33085418     0.39900
H1658       H  0.76552525  0.93105131  0.33267892     0.34800
C1659       C  0.86076144  0.76568517  0.39588188    -0.26900
C1660       C  0.87878688  0.77827906  0.37487048    -0.15000
C1661       C  0.89797924  0.76020189  0.35895426     0.35600
C1662       C  0.89480490  0.72974663  0.36029819    -0.26400
C1663       C  0.87369663  0.71726865  0.37824722    -0.15600
C1664       C  0.85848453  0.73517900  0.39810610     0.36700
N1665       N  0.83974831  0.72227618  0.41947130    -0.89900
H1666       H  0.84632416  0.77948724  0.40846295     0.17800
H1667       H  0.90689131  0.71598241  0.34541028     0.17800
N1668       N  0.91955990  0.77295983  0.34035450    -0.88900
H1669       H  0.82982162  0.73838399  0.43215848     0.35200
H1670       H  0.82315601  0.71108235  0.40877064     0.40300
H1671       H  0.90905153  0.78463303  0.32396347     0.39900
H1672       H  0.93185672  0.75674599  0.33010762     0.34800
C1673       C  0.48206141  0.17699534  0.40201036    -0.26900
C1674       C  0.46733958  0.16533467  0.37796513    -0.15000
C1675       C  0.48372775  0.15297704  0.35500026     0.35600
C1676       C  0.51447909  0.15350446  0.35628953    -0.26400
C1677       C  0.52909085  0.16613323  0.38001157    -0.15600
C1678       C  0.51243823  0.17738523  0.40338445     0.36700
N1679       N  0.52572808  0.18879087  0.42918623    -0.89900
H1680       H  0.46976220  0.18605295  0.41999263     0.17800
H1681       H  0.52707558  0.14490232  0.33831111     0.17800
N1682       N  0.46924036  0.14139994  0.32983977    -0.88900
H1683       H  0.53757544  0.20738387  0.42395281     0.35200
H1684       H  0.53986304  0.17305922  0.43760664     0.40300
H1685       H  0.45816761  0.12267252  0.33625201     0.39900
H1686       H  0.48440587  0.13472542  0.31425868     0.34800
C1687       C  0.63823799  0.51536972  0.19067614    -0.26900
C1688       C  0.62447016  0.53021481  0.16779441    -0.15000
C1689       C  0.61328992  0.51399401  0.14413836     0.35600
C1690       C  0.61422426  0.48330111  0.14505366    -0.26400
C1691       C  0.62585025  0.46861376  0.16918122    -0.15600
C1692       C  0.63931059  0.48489586  0.19151959     0.36700
N1693       N  0.65375627  0.47040685  0.21520034    -0.89900
H1694       H  0.64780342  0.52765319  0.20838853     0.17800
H1695       H  0.60438843  0.47084126  0.12762975     0.17800
N1696       N  0.59991806  0.52853933  0.11993242    -0.88900
H1697       H  0.66236092  0.48550810  0.22988285     0.35200
H1698       H  0.67140879  0.45890473  0.20654850     0.40300
H1699       H  0.58100292  0.53868826  0.12752139     0.39900
H1700       H  0.59334657  0.51346912  0.10419982     0.34800
C1701       C  0.51338712  0.37930800  0.14553294    -0.26900
C1702       C  0.52826938  0.37318139  0.17155209    -0.15000
C1703       C  0.51200921  0.36427822  0.19594422     0.35600
C1704       C  0.48162009  0.36370638  0.19459653    -0.26400
C1705       C  0.46643080  0.37169593  0.16928529    -0.15600
C1706       C  0.48265598  0.37882546  0.14412783     0.36700
N1707       N  0.46809499  0.38633700  0.11752270    -0.89900
H1708       H  0.52569413  0.38563590  0.12653002     0.17800
H1709       H  0.46983344  0.35723261  0.21389301     0.17800
N1710       N  0.52623231  0.35548517  0.22224767    -0.88900
H1711       H  0.48317756  0.39002354  0.10096552     0.35200
H1712       H  0.45728128  0.40609522  0.12095892     0.40300
H1713       H  0.52004792  0.33411753  0.22685566     0.39900
H1714       H  0.51882015  0.36885427  0.23912391     0.34800
C1715       C  0.60219791  0.27414989  0.25414840    -0.26900
C1716       C  0.60529833  0.30337307  0.26234357    -0.15000
C1717       C  0.60447075  0.31108268  0.29207629     0.35600
C1718       C  0.60275813  0.28900184  0.31309343    -0.26400
C1719       C  0.60301486  0.25962448  0.30479860    -0.15600
C1720       C  0.60110769  0.25214209  0.27513428     0.36700
N1721       N  0.60004837  0.22207522  0.26651008    -0.89900
H1722       H  0.60254763  0.26836743  0.23129242     0.17800
H1723       H  0.60452431  0.29460817  0.33592209     0.17800
N1724       N  0.60806371  0.34091340  0.30088305    -0.88900
H1725       H  0.59937617  0.22027704  0.24387292     0.35200
H1726       H  0.58054768  0.21347458  0.27429624     0.40300
H1727       H  0.62904518  0.34730865  0.29499471     0.39900
H1728       H  0.60694198  0.34281687  0.32350218     0.34800
C1729       C  0.64295459  0.98331676  0.11509061    -0.26900
C1730       C  0.66533952  0.96808976  0.12942086    -0.15000
C1731       C  0.68644780  0.98410864  0.14511469     0.35600
C1732       C  0.68627537  0.01464346  0.14380558    -0.26400
C1733       C  0.66507493  0.02980671  0.12787698    -0.15600
C1734       C  0.64264836  0.01397096  0.11424110     0.36700
N1735       N  0.62042890  0.02880350  0.09819826    -0.89900
H1736       H  0.62640534  0.97142910  0.10326681     0.17800
H1737       H  0.70311247  0.02673591  0.15501655     0.17800
N1738       N  0.70822084  0.96934093  0.16209439    -0.88900
H1739       H  0.60030748  0.02297400  0.10693555     0.35200
H1740       H  0.62114297  0.02142776  0.07669551     0.40300
H1741       H  0.69753351  0.95836305  0.17882316     0.39900
H1742       H  0.72218454  0.98425663  0.17206525     0.34800
C1743       C  0.64568653  0.10638982  0.23556396    -0.26900
C1744       C  0.62674391  0.12252132  0.21783147    -0.15000
C1745       C  0.60379205  0.13806650  0.23074048     0.35600
C1746       C  0.60210559  0.13992539  0.26124527    -0.26400
C1747       C  0.62327959  0.12664949  0.27894448    -0.15600
C1748       C  0.64436234  0.10832000  0.26593777     0.36700
N1749       N  0.66661287  0.09390569  0.28260549    -0.89900
H1750       H  0.66370360  0.09469324  0.22573668     0.17800
H1751       H  0.58608051  0.15428798  0.27097070     0.17800
N1752       N  0.58386968  0.15412243  0.21296586    -0.88900
H1753       H  0.66473258  0.07157618  0.27866749     0.35200
H1754       H  0.66334587  0.09668506  0.30488681     0.40300
H1755       H  0.58532972  0.17609980  0.21861987     0.39900
H1756       H  0.56284070  0.14710427  0.21784332     0.34800
C1757       C  0.64090841  0.23768653  0.10255513    -0.26900
C1758       C  0.62424279  0.21907983  0.12000824    -0.15000
C1759       C  0.60287755  0.23109996  0.13839045     0.35600
C1760       C  0.60093027  0.26156047  0.14145165    -0.26400
C1761       C  0.62034135  0.28000072  0.12688936    -0.15600
C1762       C  0.63965063  0.26807982  0.10626102     0.36700
N1763       N  0.65980426  0.28658676  0.09125941    -0.89900
H1764       H  0.65754092  0.22835124  0.08869353     0.17800
H1765       H  0.58647717  0.27075239  0.15767411     0.17800
N1766       N  0.58568800  0.21230744  0.15635705    -0.88900
H1767       H  0.67243783  0.27442795  0.07673239     0.35200
H1768       H  0.67419589  0.29515257  0.10664493     0.40300
H1769       H  0.57259868  0.19982489  0.14258081     0.39900
H1770       H  0.57163184  0.22452345  0.16946375     0.34800
C1771       C  0.98318999  0.11734419  0.35960784    -0.26900
C1772       C  0.96745097  0.12634795  0.33496349    -0.15000
C1773       C  0.98268118  0.13896369  0.31165814     0.35600
C1774       C  0.01306873  0.14011549  0.31218845    -0.26400
C1775       C  0.02923027  0.12908513  0.33570605    -0.15600
C1776       C  0.01395704  0.11871481  0.36033221     0.36700
N1777       N  0.02954048  0.10856690  0.38543863    -0.89900
H1778       H  0.97154648  0.10831055  0.37791732     0.17800
H1779       H  0.02410162  0.14923382  0.29353227     0.17800
N1780       N  0.96731285  0.15082605  0.28727243    -0.88900
H1781       H  0.01512548  0.10048572  0.40097910     0.35200
H1782       H  0.03957812  0.12661659  0.39495531     0.40300
H1783       H  0.97445779  0.14010782  0.26851080     0.39900
H1784       H  0.97277926  0.17281126  0.28545441     0.34800
C1785       C  0.85704561  0.01445816  0.31099664    -0.26900
C1786       C  0.87200842  0.02891964  0.33339658    -0.15000
C1787       C  0.88473927  0.01221246  0.35585332     0.35600
C1788       C  0.88313024  0.98150245  0.35472344    -0.26400
C1789       C  0.86941009  0.96708404  0.33144512    -0.15600
C1790       C  0.85535353  0.98394246  0.30987736     0.36700
N1791       N  0.83946482  0.97004280  0.28676957    -0.89900
H1792       H  0.84668342  0.02711641  0.29403145     0.17800
H1793       H  0.89385374  0.96876093  0.37138569     0.17800
N1794       N  0.90026374  0.02630759  0.37904182    -0.88900
H1795       H  0.83065423  0.98548133  0.27258915     0.35200
H1796       H  0.82189424  0.95915371  0.29612555     0.40300
H1797       H  0.91845901  0.03639101  0.36998197     0.39900
H1798       H  0.90815189  0.01096147  0.39384389     0.34800
C1799       C  0.80636705  0.10285707  0.21724853    -0.26900
C1800       C  0.79775747  0.11003241  0.24571219    -0.15000
C1801       C  0.76786380  0.11433866  0.25162024     0.35600
C1802       C  0.74786358  0.11422423  0.22869344    -0.26400
C1803       C  0.75689221  0.11028635  0.19986391    -0.15600
C1804       C  0.78626508  0.10334809  0.19410581     0.36700
N1805       N  0.79599717  0.09892581  0.16474219    -0.89900
H1806       H  0.82920583  0.09940907  0.21258035     0.17800
H1807       H  0.72517808  0.11889145  0.23318936     0.17800
N1808       N  0.75801978  0.12011561  0.28070804    -0.88900
H1809       H  0.81814195  0.09371170  0.16436394     0.35200
H1810       H  0.79378726  0.11871188  0.15377473     0.40300
H1811       H  0.76201423  0.10135891  0.29275859     0.39900
H1812       H  0.73552745  0.12351212  0.28119115     0.34800
C1813       C  0.76661268  0.14573656  0.39513259    -0.26900
C1814       C  0.77980312  0.12314718  0.37943973    -0.15000
C1815       C  0.76196617  0.10103667  0.36744810     0.35600
C1816       C  0.73151436  0.10491189  0.36694740    -0.26400
C1817       C  0.71866449  0.12973248  0.37940165    -0.15600
C1818       C  0.73631830  0.14892720  0.39585248     0.36700
N1819       N  0.72437444  0.17329120  0.41155775    -0.89900
H1820       H  0.78000356  0.16264684  0.40465811     0.17800
H1821       H  0.71816899  0.08966838  0.35490937     0.17800
N1822       N  0.77412231  0.07511697  0.35471959    -0.88900
H1823       H  0.73040183  0.17096358  0.43334362     0.35200
H1824       H  0.70167379  0.17303740  0.41136818     0.40300
H1825       H  0.79675677  0.07481983  0.35654412     0.39900
H1826       H  0.76906977  0.07485433  0.33263378     0.34800
C1827       C  0.85642159  0.48250898  0.37758490    -0.26900
C1828       C  0.83073598  0.46702696  0.37193669    -0.15000
C1829       C  0.80539008  0.48272037  0.36432273     0.35600
C1830       C  0.80561984  0.51314527  0.36440535    -0.26400
C1831       C  0.83072892  0.52888241  0.37173623    -0.15600
C1832       C  0.85672269  0.51312313  0.37760763     0.36700
N1833       N  0.88345487  0.52734920  0.38473648    -0.89900
H1834       H  0.87614141  0.47081087  0.38316020     0.17800
H1835       H  0.78565674  0.52450852  0.35897291     0.17800
N1836       N  0.77918273  0.46785549  0.35638729    -0.88900
H1837       H  0.88010164  0.54057949  0.40294952     0.35200
H1838       H  0.88971631  0.54020565  0.36714088     0.40300
H1839       H  0.77330639  0.47435510  0.33542344     0.39900
H1840       H  0.76271736  0.47443129  0.37063965     0.34800
C1841       C  0.74786934  0.38712721  0.27586077    -0.26900
C1842       C  0.73970362  0.38811938  0.30517119    -0.15000
C1843       C  0.71022249  0.39283416  0.31248371     0.35600
C1844       C  0.68924096  0.39403047  0.29013373    -0.26400
C1845       C  0.69727545  0.38979932  0.26096226    -0.15600
C1846       C  0.72699299  0.38780319  0.25379835     0.36700
N1847       N  0.73598697  0.38512951  0.22411711    -0.89900
H1848       H  0.77051962  0.38399959  0.27006730     0.17800
H1849       H  0.66639784  0.39551416  0.29571198     0.17800
N1850       N  0.70143274  0.39416081  0.34243709    -0.88900
H1851       H  0.74748002  0.36558951  0.22180679     0.35200
H1852       H  0.75022901  0.40220305  0.21956924     0.40300
H1853       H  0.70538037  0.37374266  0.35164046     0.39900
H1854       H  0.67903340  0.39780258  0.34400395     0.34800
C1855       C  0.86364774  0.23102554  0.39849950    -0.26900
C1856       C  0.88044181  0.21778742  0.37671473    -0.15000
C1857       C  0.89871614  0.23548142  0.35937548     0.35600
C1858       C  0.89592611  0.26590581  0.36075404    -0.26400
C1859       C  0.87608251  0.27904785  0.37979231    -0.15600
C1860       C  0.86149343  0.26147863  0.40029580     0.36700
N1861       N  0.84256864  0.27405487  0.42165963    -0.89900
H1862       H  0.84961946  0.21781608  0.41196811     0.17800
H1863       H  0.90721111  0.27910655  0.34489841     0.17800
N1864       N  0.91812951  0.22319114  0.33811208    -0.88900
H1865       H  0.82639461  0.28608219  0.41113925     0.35200
H1866       H  0.85480585  0.28844617  0.43431725     0.40300
H1867       H  0.91876671  0.20052040  0.33961608     0.39900
H1868       H  0.93911157  0.23027697  0.34318788     0.34800
C1869       C  0.71259697  0.30930758  0.39774650    -0.26900
C1870       C  0.74160078  0.29993116  0.39530526    -0.15000
C1871       C  0.74779994  0.26991982  0.39502268     0.35600
C1872       C  0.72502361  0.24996204  0.39391030    -0.26400
C1873       C  0.69600603  0.25934381  0.39304987    -0.15600
C1874       C  0.68957550  0.28923272  0.39641488     0.36700
N1875       N  0.65996540  0.29930918  0.39551338    -0.89900
H1876       H  0.70778058  0.33240813  0.39786673     0.17800
H1877       H  0.73015635  0.22707398  0.39159085     0.17800
N1878       N  0.77723670  0.25966079  0.39424252    -0.88900
H1879       H  0.65914761  0.32203593  0.39639176     0.35200
H1880       H  0.64969965  0.29188984  0.41432565     0.40300
H1881       H  0.78049492  0.24600106  0.41209415     0.39900
H1882       H  0.78002840  0.24724826  0.37536534     0.34800
C1883       C  0.01292751  0.35362134  0.11929675    -0.26900
C1884       C  0.02866980  0.32816261  0.12588852    -0.15000
C1885       C  0.01315672  0.30307021  0.13451519     0.35600
C1886       C  0.98271224  0.30344950  0.13441663    -0.26400
C1887       C  0.96673088  0.32830022  0.12633228    -0.15600
C1888       C  0.98215683  0.35406857  0.11961554     0.36700
N1889       N  0.96677135  0.38033426  0.11236959    -0.89900
H1890       H  0.02463448  0.37305369  0.11312191     0.17800
H1891       H  0.97140276  0.28375704  0.14050605     0.17800
N1892       N  0.02829349  0.27704789  0.14326740    -0.88900
H1893       H  0.98133080  0.39680922  0.10676345     0.35200
H1894       H  0.95615243  0.38747115  0.13117283     0.40300
H1895       H  0.01371591  0.26038688  0.14825282     0.39900
H1896       H  0.03955018  0.28180328  0.16245082     0.34800
C1897       C  0.77464211  0.24518452  0.10204456    -0.26900
C1898       C  0.80364408  0.23578391  0.10296794    -0.15000
C1899       C  0.80996067  0.20568519  0.10043005     0.35600
C1900       C  0.78694391  0.18576256  0.10091333    -0.26400
C1901       C  0.75805551  0.19521800  0.10403350    -0.15600
C1902       C  0.75182118  0.22534222  0.10251374     0.36700
N1903       N  0.72267501  0.23650124  0.10199335    -0.89900
H1904       H  0.76965788  0.26821099  0.10333186     0.17800
H1905       H  0.79195487  0.16270522  0.10155451     0.17800
N1906       N  0.83911943  0.19430264  0.09994539    -0.88900
H1907       H  0.71240783  0.23224911  0.12172559     0.35200
H1908       H  0.71136853  0.22612398  0.08521767     0.40300
H1909       H  0.85461632  0.21076720  0.10000868     0.39900
H1910       H  0.84176955  0.18311179  0.08031069     0.34800
C1911       C  0.88666016  0.24714300  0.22786292    -0.26900
C1912       C  0.88683486  0.23827699  0.19858730    -0.15000
C1913       C  0.89061634  0.20826361  0.19215941     0.35600
C1914       C  0.89196058  0.18800811  0.21485314    -0.26400
C1915       C  0.88863981  0.19684756  0.24384167    -0.15600
C1916       C  0.88716561  0.22675855  0.25039308     0.36700
N1917       N  0.88492204  0.23645155  0.27992980    -0.89900
H1918       H  0.88434836  0.26998664  0.23337852     0.17800
H1919       H  0.89282913  0.16501319  0.20959763     0.17800
N1920       N  0.89075409  0.19732933  0.16299629    -0.88900
H1921       H  0.86556279  0.24824580  0.28214097     0.35200
H1922       H  0.90218262  0.25062361  0.28407685     0.40300
H1923       H  0.90814423  0.20665011  0.15182858     0.39900
H1924       H  0.87121858  0.20321547  0.15295147     0.34800
C1925       C  0.88940369  0.34808818  0.23464217    -0.26900
C1926       C  0.87282561  0.36734407  0.21768529    -0.15000
C1927       C  0.85778779  0.39033911  0.23129995     0.35600
C1928       C  0.85743647  0.39202145  0.26189927    -0.26400
C1929       C  0.87136120  0.37077187  0.27893236    -0.15600
C1930       C  0.88844380  0.34924665  0.26518977     0.36700
N1931       N  0.90273566  0.32721006  0.28222288    -0.89900
H1932       H  0.90058093  0.33015006  0.22407601     0.17800
H1933       H  0.84376929  0.40812110  0.27247672     0.17800
N1934       N  0.84090185  0.41024836  0.21410457    -0.88900
H1935       H  0.91454858  0.31308767  0.26880969     0.35200
H1936       H  0.88671238  0.31458936  0.29214982     0.40300
H1937       H  0.85535793  0.42178986  0.20098621     0.39900
H1938       H  0.83056795  0.42556333  0.22743172     0.34800
C1939       C  0.76554926  0.38994438  0.13481597    -0.26900
C1940       C  0.77624572  0.36620321  0.11880523    -0.15000
C1941       C  0.75655969  0.34899595  0.10264471     0.35600
C1942       C  0.72647400  0.35301809  0.10631895    -0.26400
C1943       C  0.71579886  0.37398739  0.12569909    -0.15600
C1944       C  0.73531756  0.39396757  0.13848374     0.36700
N1945       N  0.72439596  0.41716034  0.15650146    -0.89900
H1946       H  0.78060870  0.40330204  0.14706366     0.17800
H1947       H  0.71147475  0.33773068  0.09648899     0.17800
N1948       N  0.76733069  0.32562955  0.08478211    -0.88900
H1949       H  0.74153215  0.42976162  0.16450352     0.35200
H1950       H  0.71415024  0.40798938  0.17451361     0.40300
H1951       H  0.77956122  0.33489246  0.06808157     0.39900
H1952       H  0.75013240  0.31456740  0.07484663     0.34800
C1953       C  0.64127298  0.81313607  0.51466075    -0.26900
C1954       C  0.62379437  0.83326714  0.52963620    -0.15000
C1955       C  0.60792057  0.85422759  0.51371157     0.35600
C1956       C  0.60909717  0.85386327  0.48303512    -0.26400
C1957       C  0.62533310  0.83259730  0.46812656    -0.15600
C1958       C  0.64239429  0.81269572  0.48417557     0.36700
N1959       N  0.66046933  0.79178719  0.46938259    -0.89900
H1960       H  0.65373441  0.79726413  0.52687870     0.17800
H1961       H  0.59594912  0.86908335  0.47073003     0.17800
N1962       N  0.58952584  0.87473548  0.52860429    -0.88900
H1963       H  0.67149199  0.77862269  0.48429660     0.35200
H1964       H  0.67635060  0.80331483  0.45800219     0.40300
H1965       H  0.57304252  0.86298818  0.53885065     0.39900
H1966       H  0.57926739  0.88855869  0.51374557     0.34800
C1967       C  0.59788279  0.68895777  0.71044111    -0.26900
C1968       C  0.60222426  0.69798833  0.73934246    -0.15000
C1969       C  0.60258700  0.72802980  0.74571209     0.35600
C1970       C  0.60251027  0.74821069  0.72301130    -0.26400
C1971       C  0.60197717  0.73899101  0.69394717    -0.15600
C1972       C  0.59794639  0.70917289  0.68767112     0.36700
N1973       N  0.59643177  0.69860698  0.65841231    -0.89900
H1974       H  0.59724945  0.66596444  0.70519402     0.17800
H1975       H  0.60498365  0.77113029  0.72808599     0.17800
N1976       N  0.60441644  0.73811118  0.77513910    -0.88900
H1977       H  0.61532843  0.70482977  0.64753326     0.35200
H1978       H  0.57861908  0.70844925  0.64824092     0.40300
H1979       H  0.58658667  0.75173963  0.77906284     0.39900
H1980       H  0.62328181  0.75057168  0.77729933     0.34800
C1981       C  0.81002618  0.63919391  0.51296974    -0.26900
C1982       C  0.83192726  0.62454798  0.52836923    -0.15000
C1983       C  0.85457981  0.61064476  0.51266327     0.35600
C1984       C  0.85412574  0.61082721  0.48212008    -0.26400
C1985       C  0.83131520  0.62432971  0.46689625    -0.15600
C1986       C  0.80958545  0.63931081  0.48258998     0.36700
N1987       N  0.78692018  0.65472548  0.46768190    -0.89900
H1988       H  0.79277055  0.65031846  0.52462778     0.17800
H1989       H  0.87091263  0.59921185  0.47027981     0.17800
N1990       N  0.87733972  0.59487745  0.52699223    -0.88900
H1991       H  0.78768536  0.67654362  0.47413005     0.35200
H1992       H  0.76694942  0.64619040  0.47427409     0.40300
H1993       H  0.86794329  0.57902682  0.54022368     0.39900
H1994       H  0.88905531  0.60934201  0.54002837     0.34800
C1995       C  0.72295842  0.74746677  0.60320211    -0.26900
C1996       C  0.69367176  0.73892506  0.60322070    -0.15000
C1997       C  0.68688634  0.70920604  0.59986584     0.35600
C1998       C  0.70939428  0.68842055  0.59994631    -0.26400
C1999       C  0.73841374  0.69696171  0.60394766    -0.15600
C2000       C  0.74539585  0.72679438  0.60377478     0.36700
N2001       N  0.77518403  0.73592152  0.60589549    -0.89900
H2002       H  0.72831149  0.77036066  0.60498088     0.17800
H2003       H  0.70388271  0.66551040  0.59975125     0.17800
N2004       N  0.65725034  0.69981594  0.59898046    -0.88900
H2005       H  0.77647474  0.75861507  0.60639630     0.35200
H2006       H  0.78574153  0.72905181  0.58696668     0.40300
H2007       H  0.65394473  0.68551246  0.61628224     0.39900
H2008       H  0.65415417  0.68817996  0.57967734     0.34800
C2009       C  0.71041072  0.60240880  0.68716022    -0.26900
C2010       C  0.73931429  0.60793317  0.69547004    -0.15000
C2011       C  0.74596175  0.61083961  0.72525394     0.35600
C2012       C  0.72355163  0.61149796  0.74571707    -0.26400
C2013       C  0.69437770  0.60913839  0.73721007    -0.15600
C2014       C  0.68771243  0.60323306  0.70779858     0.36700
N2015       N  0.65796333  0.60027638  0.69866199    -0.89900
H2016       H  0.70519024  0.60012467  0.66430273     0.17800
H2017       H  0.72892136  0.61567000  0.76827722     0.17800
N2018       N  0.77543726  0.61445593  0.73471112    -0.88900
H2019       H  0.65686932  0.59588756  0.67638088     0.35200
H2020       H  0.64766533  0.62035407  0.70185109     0.40300
H2021       H  0.78023228  0.59789315  0.74951024     0.39900
H2022       H  0.77697654  0.63433650  0.74570514     0.34800
C2023       C  0.67548129  0.90181514  0.98463001    -0.26900
C2024       C  0.66469977  0.87732685  0.97003137    -0.15000
C2025       C  0.65198586  0.85453936  0.98593335     0.35600
C2026       C  0.65092764  0.85647015  0.01649213    -0.26400
C2027       C  0.66265758  0.88059214  0.03118029    -0.15600
C2028       C  0.67442395  0.90381843  0.01501897     0.36700
N2029       N  0.68548721  0.92922353  0.02957731    -0.89900
H2030       H  0.68508693  0.91932488  0.97219449     0.17800
H2031       H  0.64218182  0.83854127  0.02893776     0.17800
N2032       N  0.64193436  0.82886842  0.97117070    -0.88900
H2033       H  0.66801385  0.93936905  0.04007059     0.35200
H2034       H  0.69352565  0.94419500  0.01454750     0.40300
H2035       H  0.62416836  0.83484125  0.95829081     0.39900
H2036       H  0.63426296  0.81362994  0.98612011     0.34800
C2037       C  0.63921856  0.89071557  0.76338948    -0.26900
C2038       C  0.62621741  0.86967100  0.78120711    -0.15000
C2039       C  0.60754881  0.84891993  0.76852530     0.35600
C2040       C  0.60424050  0.84804210  0.73828778    -0.26400
C2041       C  0.62003759  0.86685531  0.72019475    -0.15600
C2042       C  0.63642250  0.88940623  0.73287564     0.36700
N2043       N  0.65270119  0.90876292  0.71469140    -0.89900
H2044       H  0.65389576  0.90638300  0.77308821     0.17800
H2045       H  0.59196141  0.83033379  0.72870769     0.17800
N2046       N  0.59389090  0.82682600  0.78562301    -0.88900
H2047       H  0.66454736  0.92348608  0.72734585     0.35200
H2048       H  0.63775566  0.92102838  0.70270121     0.40300
H2049       H  0.58126660  0.83705788  0.80155261     0.39900
H2050       H  0.61001382  0.81455770  0.79599568     0.34800
C2051       C  0.60302088  0.76639661  0.86068525    -0.26900
C2052       C  0.62332993  0.77807811  0.88013819    -0.15000
C2053       C  0.63791145  0.75933672  0.89963143     0.35600
C2054       C  0.63543278  0.72897583  0.89604893    -0.26400
C2055       C  0.61830126  0.71735482  0.87366468    -0.15600
C2056       C  0.59993371  0.73618883  0.85758690     0.36700
N2057       N  0.58002935  0.72541821  0.83599189    -0.89900
H2058       H  0.59169102  0.78065879  0.84570438     0.17800
H2059       H  0.64924386  0.71457818  0.90862601     0.17800
N2060       N  0.65670601  0.77122684  0.92163905    -0.88900
H2061       H  0.55919971  0.73247927  0.84182357     0.35200
H2062       H  0.57925462  0.70270715  0.83614072     0.40300
H2063       H  0.67388553  0.78189004  0.91140484     0.39900
H2064       H  0.66591730  0.75456562  0.93408329     0.34800
C2065       C  0.89938131  0.67744588  0.98259562    -0.26900
C2066       C  0.87892129  0.66088354  0.96715334    -0.15000
C2067       C  0.85840883  0.64428899  0.98283274     0.35600
C2068       C  0.85827447  0.64566771  0.01359568    -0.26400
C2069       C  0.87788610  0.66366448  0.02875289    -0.15600
C2070       C  0.89922664  0.67894287  0.01295617     0.36700
N2071       N  0.92081969  0.69601243  0.02783719    -0.89900
H2072       H  0.91562134  0.68968434  0.97079314     0.17800
H2073       H  0.84208961  0.63365567  0.02568267     0.17800
N2074       N  0.83725900  0.62702615  0.96763187    -0.88900
H2075       H  0.93467433  0.70620884  0.01305373     0.35200
H2076       H  0.93371806  0.68171936  0.03996853     0.40300
H2077       H  0.82376135  0.64125254  0.95609560     0.39900
H2078       H  0.82393570  0.61607589  0.98236276     0.34800
C2079       C  0.86124606  0.60453962  0.76478330    -0.26900
C2080       C  0.87877203  0.62596304  0.77754521    -0.15000
C2081       C  0.89624358  0.64361620  0.75954189     0.35600
C2082       C  0.89283469  0.64216734  0.72914155    -0.26400
C2083       C  0.87251130  0.62324784  0.71664171    -0.15600
C2084       C  0.85812068  0.60289607  0.73436427     0.36700
N2085       N  0.83823364  0.58254244  0.72145852    -0.89900
H2086       H  0.84767061  0.59117468  0.77855391     0.17800
H2087       H  0.90388972  0.65776504  0.71545375     0.17800
N2088       N  0.91583719  0.66438988  0.77231027    -0.88900
H2089       H  0.82899409  0.56933587  0.73741435     0.35200
H2090       H  0.85030721  0.56878921  0.70790132     0.40300
H2091       H  0.90353120  0.67979619  0.78365913     0.39900
H2092       H  0.92699038  0.67573055  0.75613942     0.34800
C2093       C  0.76741341  0.60490976  0.85641823    -0.26900
C2094       C  0.77976748  0.62637666  0.87426182    -0.15000
C2095       C  0.76121264  0.64355402  0.89207922     0.35600
C2096       C  0.73095435  0.64158329  0.88868472    -0.26400
C2097       C  0.71878032  0.62269743  0.86816336    -0.15600
C2098       C  0.73701937  0.60307762  0.85316122     0.36700
N2099       N  0.72476272  0.58285303  0.83286132    -0.89900
H2100       H  0.78128249  0.59181653  0.84251029     0.17800
H2101       H  0.71708319  0.65690075  0.90012879     0.17800
N2102       N  0.77239688  0.66519046  0.91175049    -0.88900
H2103       H  0.73099384  0.56190641  0.83918283     0.35200
H2104       H  0.73381326  0.58684334  0.81244665     0.40300
H2105       H  0.79506154  0.66432852  0.91287500     0.39900
H2106       H  0.76499571  0.65999980  0.93256563     0.34800
C2107       C  0.77364348  0.74501027  0.89201431    -0.26900
C2108       C  0.80264312  0.75377861  0.89494885    -0.15000
C2109       C  0.80886368  0.78290983  0.90232502     0.35600
C2110       C  0.78604518  0.80347986  0.90275109    -0.26400
C2111       C  0.75740980  0.79519549  0.89596464    -0.15600
C2112       C  0.75101456  0.76535183  0.89269786     0.36700
N2113       N  0.72168938  0.75575018  0.88853579    -0.89900
H2114       H  0.76866037  0.72248824  0.88708954     0.17800
H2115       H  0.79106085  0.82630576  0.90576727     0.17800
N2116       N  0.83844118  0.79196063  0.90659588    -0.88900
H2117       H  0.71684545  0.74077198  0.90487832     0.35200
H2118       H  0.72045315  0.74492051  0.86856037     0.40300
H2119       H  0.84606619  0.78179730  0.92543258     0.39900
H2120       H  0.83937036  0.81434720  0.91057668     0.34800
C2121       C  0.89472405  0.76216897  0.64343469    -0.26900
C2122       C  0.87670822  0.78086709  0.62724885    -0.15000
C2123       C  0.85913487  0.76904967  0.60522932     0.35600
C2124       C  0.85697641  0.73863809  0.60224104    -0.26400
C2125       C  0.87219174  0.71988446  0.62102161    -0.15600
C2126       C  0.89264608  0.73171221  0.64049185     0.36700
N2127       N  0.90878366  0.71276284  0.65940796    -0.89900
H2128       H  0.90817440  0.77125026  0.66053123     0.17800
H2129       H  0.84108912  0.72972053  0.58729578     0.17800
N2130       N  0.84139864  0.78779965  0.58779261    -0.88900
H2131       H  0.92253453  0.72483585  0.67289516     0.35200
H2132       H  0.92223244  0.69983956  0.64634828     0.40300
H2133       H  0.81968070  0.78207693  0.59093789     0.39900
H2134       H  0.84650848  0.78390274  0.56599610     0.34800
C2135       C  0.89358396  0.81008596  0.79047422    -0.26900
C2136       C  0.89325531  0.80255326  0.76092099    -0.15000
C2137       C  0.89528058  0.77307435  0.75278556     0.35600
C2138       C  0.89466905  0.75150793  0.77411950    -0.26400
C2139       C  0.89174741  0.75885773  0.80358550    -0.15600
C2140       C  0.89246387  0.78842844  0.81191760     0.36700
N2141       N  0.88931452  0.79662372  0.84180964    -0.89900
H2142       H  0.89174166  0.83272578  0.79690320     0.17800
H2143       H  0.89450955  0.72890870  0.76740158     0.17800
N2144       N  0.89646701  0.76497496  0.72272129    -0.88900
H2145       H  0.87054973  0.80939040  0.84379257     0.35200
H2146       H  0.90715327  0.80945127  0.84756973     0.40300
H2147       H  0.87866581  0.75161288  0.71816309     0.39900
H2148       H  0.91540193  0.75275572  0.71947292     0.34800
C2149       C  0.73554728  0.86052150  0.60536491    -0.26900
C2150       C  0.71716455  0.87313584  0.62633597    -0.15000
C2151       C  0.72945144  0.89111691  0.64809290     0.35600
C2152       C  0.75981092  0.89312905  0.65037920    -0.26400
C2153       C  0.77825947  0.87769856  0.63147816    -0.15600
C2154       C  0.76592858  0.86251687  0.60783270     0.36700
N2155       N  0.78371198  0.84671093  0.58769112    -0.89900
H2156       H  0.72639844  0.84641212  0.58882291     0.17800
H2157       H  0.76904490  0.90458243  0.66882761     0.17800
N2158       N  0.71195594  0.90531308  0.66983664    -0.88900
H2159       H  0.79584553  0.83131234  0.59921244     0.35200
H2160       H  0.79814499  0.86136297  0.57813388     0.40300
H2161       H  0.68982816  0.90273294  0.66549480     0.39900
H2162       H  0.71593390  0.92764668  0.66840300     0.34800
C2163       C  0.77255585  0.88823867  0.75416079    -0.26900
C2164       C  0.80190395  0.89059869  0.76220820    -0.15000
C2165       C  0.80923560  0.89459671  0.79177116     0.35600
C2166       C  0.78716339  0.89320160  0.81287307    -0.26400
C2167       C  0.75837066  0.88709828  0.80483766    -0.15600
C2168       C  0.75069641  0.88632569  0.77517670     0.36700
N2169       N  0.72090369  0.88214394  0.76660886    -0.89900
H2170       H  0.76689628  0.88577941  0.73140472     0.17800
H2171       H  0.79288322  0.89411725  0.83570904     0.17800
N2172       N  0.83911524  0.89763322  0.80047097    -0.88900
H2173       H  0.71897910  0.88168216  0.74396517     0.35200
H2174       H  0.70911236  0.90026511  0.77378833     0.40300
H2175       H  0.84969346  0.87794309  0.79602515     0.39900
H2176       H  0.84061616  0.90081340  0.82293054     0.34800
C2177       C  0.14524469  0.61704418  0.51406709    -0.26900
C2178       C  0.17080843  0.62658034  0.52789281    -0.15000
C2179       C  0.19423407  0.63645895  0.51074393     0.35600
C2180       C  0.19217819  0.63518329  0.48043004    -0.26400
C2181       C  0.16728032  0.62437277  0.46643083    -0.15600
C2182       C  0.14331709  0.61554915  0.48344864     0.36700
N2183       N  0.11765520  0.60411377  0.46978176    -0.89900
H2184       H  0.12725399  0.60947542  0.52717334     0.17800
H2185       H  0.21044011  0.64255677  0.46757094     0.17800
N2186       N  0.22018682  0.64768177  0.52415616    -0.88900
H2187       H  0.10204004  0.59883620  0.48538066     0.35200
H2188       H  0.12345374  0.58461645  0.45951715     0.40300
H2189       H  0.21449993  0.66674898  0.53525520     0.39900
H2190       H  0.23551069  0.65357385  0.50849028     0.34800
C2191       C  0.51331343  0.81704787  0.64228580    -0.26900
C2192       C  0.52838176  0.83579697  0.62373373    -0.15000
C2193       C  0.51271653  0.85644962  0.60721890     0.35600
C2194       C  0.48202311  0.85673533  0.60850609    -0.26400
C2195       C  0.46691850  0.83681411  0.62601242    -0.15600
C2196       C  0.48291612  0.81759635  0.64381608     0.36700
N2197       N  0.46830909  0.79841874  0.66344112    -0.89900
H2198       H  0.52525177  0.80151007  0.65542436     0.17800
H2199       H  0.46986995  0.87153048  0.59475716     0.17800
N2200       N  0.52784028  0.87567247  0.58788476    -0.88900
H2201       H  0.47573147  0.80282925  0.68447774     0.35200
H2202       H  0.47418223  0.77704469  0.65819026     0.40300
H2203       H  0.54013663  0.88993263  0.60061882     0.39900
H2204       H  0.51306687  0.88854550  0.57631327     0.34800
C2205       C  0.36442769  0.85589278  0.51271155    -0.26900
C2206       C  0.38068014  0.83492574  0.52809064    -0.15000
C2207       C  0.39654601  0.81371126  0.51216399     0.35600
C2208       C  0.39398733  0.81262992  0.48189411    -0.26400
C2209       C  0.37694649  0.83276417  0.46664044    -0.15600
C2210       C  0.36254745  0.85511547  0.48207082     0.36700
N2211       N  0.34548390  0.87635009  0.46674008    -0.89900
H2212       H  0.35247099  0.87239620  0.52461483     0.17800
H2213       H  0.40581586  0.79601361  0.46997496     0.17800
N2214       N  0.41537846  0.79328906  0.52664995    -0.88900
H2215       H  0.33626378  0.89126870  0.48127027     0.35200
H2216       H  0.32823805  0.86538272  0.45685530     0.40300
H2217       H  0.43240210  0.80512507  0.53597088     0.39900
H2218       H  0.42487928  0.77885201  0.51181424     0.34800
C2219       C  0.25221103  0.73001060  0.60253278    -0.26900
C2220       C  0.26163236  0.70100485  0.60038793    -0.15000
C2221       C  0.29097315  0.69510319  0.59334956     0.35600
C2222       C  0.31104424  0.71818543  0.59312747    -0.26400
C2223       C  0.30206345  0.74660177  0.59994331    -0.15600
C2224       C  0.27213866  0.75292572  0.60219908     0.36700
N2225       N  0.26238349  0.78245864  0.60603402    -0.89900
H2226       H  0.22945539  0.73465512  0.60667751     0.17800
H2227       H  0.33402050  0.71352091  0.59063777     0.17800
N2228       N  0.30071740  0.66572011  0.58872725    -0.88900
H2229       H  0.23972762  0.78335709  0.60778593     0.35200
H2230       H  0.26781294  0.79384465  0.58718527     0.40300
H2231       H  0.29887318  0.65473174  0.60845582     0.39900
H2232       H  0.32278064  0.66533969  0.58327923     0.34800
C2233       C  0.48284671  0.61283859  0.85237740    -0.26900
C2234       C  0.46856550  0.63129602  0.83263595    -0.15000
C2235       C  0.48524307  0.64929888  0.81438749     0.35600
C2236       C  0.51556367  0.64668740  0.81428910    -0.26400
C2237       C  0.52978731  0.62684705  0.83258534    -0.15600
C2238       C  0.51340292  0.61051296  0.85264820     0.36700
N2239       N  0.52760321  0.59032307  0.87183237    -0.89900
H2240       H  0.47012071  0.59912314  0.86659832     0.17800
H2241       H  0.52808092  0.65994266  0.79942781     0.17800
N2242       N  0.47144649  0.67017348  0.79579042    -0.88900
H2243       H  0.51226479  0.57879985  0.88393124     0.35200
H2244       H  0.53964749  0.60245857  0.88681559     0.40300
H2245       H  0.47745318  0.66557205  0.77435428     0.39900
H2246       H  0.47942282  0.69078507  0.80114532     0.34800
C2247       C  0.31504308  0.60467847  0.71070234    -0.26900
C2248       C  0.30596590  0.60949923  0.73941800    -0.15000
C2249       C  0.27609575  0.61130080  0.74566799     0.35600
C2250       C  0.25595165  0.61127871  0.72303310    -0.26400
C2251       C  0.26506545  0.61024742  0.69399600    -0.15600
C2252       C  0.29478166  0.60539136  0.68768673     0.36700
N2253       N  0.30456923  0.60364996  0.65810017    -0.89900
H2254       H  0.33808632  0.60334265  0.70596403     0.17800
H2255       H  0.23314729  0.61438259  0.72816437     0.17800
N2256       N  0.26622832  0.61491616  0.77496912    -0.88900
H2257       H  0.32696360  0.59972775  0.65733781     0.35200
H2258       H  0.30125853  0.62408153  0.64877097     0.40300
H2259       H  0.25174836  0.59805385  0.77955274     0.39900
H2260       H  0.25474412  0.63454757  0.77633400     0.34800
C2261       C  0.39120792  0.69896200  0.71642355    -0.26900
C2262       C  0.38396762  0.70702624  0.74504501    -0.15000
C2263       C  0.37917527  0.73679731  0.75124803     0.35600
C2264       C  0.37890613  0.75714796  0.72863706    -0.26400
C2265       C  0.38329066  0.74866180  0.69961580    -0.15600
C2266       C  0.39101344  0.71940983  0.69364384     0.36700
N2267       N  0.39676119  0.71006881  0.66436104    -0.89900
H2268       H  0.39535956  0.67628692  0.71139502     0.17800
H2269       H  0.37391055  0.77965280  0.73378049     0.17800
N2270       N  0.37369586  0.74652469  0.78034137    -0.88900
H2271       H  0.40033660  0.68760101  0.66355596     0.35200
H2272       H  0.41624453  0.71974785  0.65790912     0.40300
H2273       H  0.35326488  0.75656669  0.78079804     0.39900
H2274       H  0.38923297  0.76223907  0.78563409     0.34800
C2275       C  0.01459776  0.88327794  0.64440716    -0.26900
C2276       C  0.03000687  0.87289098  0.66872626    -0.15000
C2277       C  0.01408580  0.86145631  0.69243595     0.35600
C2278       C  0.98360093  0.86255638  0.69207620    -0.26400
C2279       C  0.96817465  0.87421492  0.66846017    -0.15600
C2280       C  0.98401856  0.88400230  0.64398721     0.36700
N2281       N  0.96985704  0.89599884  0.61899099    -0.89900
H2282       H  0.02635405  0.89195169  0.62599172     0.17800
H2283       H  0.97172689  0.85434751  0.71064277     0.17800
N2284       N  0.02884324  0.84892685  0.71702231    -0.88900
H2285       H  0.95680472  0.91344508  0.62565195     0.35200
H2286       H  0.95671226  0.87997679  0.60968365     0.40300
H2287       H  0.03971335  0.83026233  0.70975361     0.39900
H2288       H  0.01399742  0.84208531  0.73275826     0.34800
C2289       C  0.10679666  0.76592422  0.63480802    -0.26900
C2290       C  0.12715137  0.78366471  0.62061308    -0.15000
C2291       C  0.14809721  0.77056049  0.60227317     0.35600
C2292       C  0.15062689  0.74017149  0.60165814    -0.26400
C2293       C  0.13274907  0.72253936  0.61889012    -0.15600
C2294       C  0.10962737  0.73548336  0.63438399     0.36700
N2295       N  0.09053515  0.71844770  0.65199405    -0.89900
H2296       H  0.09079804  0.77576321  0.64909074     0.17800
H2297       H  0.16855974  0.73041668  0.58979498     0.17800
N2298       N  0.16876426  0.78745404  0.58613018    -0.88900
H2299       H  0.10293777  0.70741010  0.66753663     0.35200
H2300       H  0.08052983  0.70301598  0.63861331     0.40300
H2301       H  0.16402321  0.80963834  0.58768569     0.39900
H2302       H  0.16624845  0.78208641  0.56417978     0.34800
C2303       C  0.25986126  0.86467694  0.59547711    -0.26900
C2304       C  0.27827026  0.88011787  0.61443549    -0.15000
C2305       C  0.26595093  0.90123426  0.63304900     0.35600
C2306       C  0.23562760  0.90362402  0.63515899    -0.26400
C2307       C  0.21725837  0.88474161  0.61961910    -0.15600
C2308       C  0.22936187  0.86668565  0.59799116     0.36700
N2309       N  0.21085782  0.84786318  0.58128599    -0.89900
H2310       H  0.26924974  0.84845141  0.58113124     0.17800
H2311       H  0.22648507  0.91760979  0.65183524     0.17800
N2312       N  0.28358616  0.91810245  0.65242406    -0.88900
H2313       H  0.22318935  0.83507396  0.56703883     0.35200
H2314       H  0.19754579  0.86106849  0.56841005     0.40300
H2315       H  0.29858017  0.92969885  0.63997959     0.39900
H2316       H  0.29506358  0.90398601  0.66607408     0.34800
C2317       C  0.11561763  0.64193498  0.98126089    -0.26900
C2318       C  0.12398313  0.66753035  0.96677615    -0.15000
C2319       C  0.13247431  0.69195630  0.98348459     0.35600
C2320       C  0.13018000  0.69106504  0.01380175    -0.26400
C2321       C  0.12027205  0.66618575  0.02833401    -0.15600
C2322       C  0.11365200  0.64100503  0.01193646     0.36700
N2323       N  0.10411756  0.61499698  0.02626954    -0.89900
H2324       H  0.10946946  0.62301495  0.96860910     0.17800
H2325       H  0.13624810  0.71015338  0.02626751     0.17800
N2326       N  0.14345526  0.71771289  0.96963116    -0.88900
H2327       H  0.10038522  0.59842760  0.01111587     0.35200
H2328       H  0.08409543  0.61956428  0.03603986     0.40300
H2329       H  0.16304328  0.71212895  0.95949766     0.39900
H2330       H  0.14838463  0.73378559  0.98497482     0.34800
C2331       C  0.01721988  0.64509801  0.88532402    -0.26900
C2332       C  0.03157239  0.66760247  0.87045389    -0.15000
C2333       C  0.01456408  0.68796451  0.85473216     0.35600
C2334       C  0.98420561  0.68624081  0.85537136    -0.26400
C2335       C  0.96972707  0.66481204  0.87153264    -0.15600
C2336       C  0.98664530  0.64360552  0.88620889     0.36700
N2337       N  0.97354424  0.62124697  0.90334172    -0.89900
H2338       H  0.02981961  0.62927060  0.89744392     0.17800
H2339       H  0.97172766  0.70240619  0.84355081     0.17800
N2340       N  0.02737630  0.71050877  0.83756188    -0.88900
H2341       H  0.96063410  0.60837810  0.88977100     0.35200
H2342       H  0.96031480  0.63104279  0.91905853     0.40300
H2343       H  0.04226380  0.70108079  0.82315448     0.39900
H2344       H  0.03819660  0.72510703  0.85118560     0.34800
C2345       C  0.11151086  0.63871391  0.72959760    -0.26900
C2346       C  0.13472438  0.62326798  0.71712464    -0.15000
C2347       C  0.15257889  0.60576298  0.73524495     0.35600
C2348       C  0.14912953  0.60716200  0.76553160    -0.26400
C2349       C  0.12812730  0.62534562  0.77818193    -0.15600
C2350       C  0.10816182  0.64001547  0.75991444     0.36700
N2351       N  0.08599639  0.65856362  0.77171753    -0.89900
H2352       H  0.09787273  0.65233632  0.71600815     0.17800
H2353       H  0.16484475  0.59619553  0.77929629     0.17800
N2354       N  0.17603197  0.58836498  0.72383120    -0.88900
H2355       H  0.09585009  0.67499705  0.78397004     0.35200
H2356       H  0.07311236  0.64612358  0.78562929     0.40300
H2357       H  0.17616743  0.58848751  0.70114148     0.39900
H2358       H  0.17216486  0.56679535  0.72981748     0.34800
C2359       C  0.26885642  0.63605882  0.89449665    -0.26900
C2360       C  0.28062088  0.61834402  0.87264433    -0.15000
C2361       C  0.26218562  0.59881211  0.85769354     0.35600
C2362       C  0.23181030  0.60146011  0.86087857    -0.26400
C2363       C  0.21990131  0.62261663  0.87940831    -0.15600
C2364       C  0.23864166  0.63787843  0.89850585     0.36700
N2365       N  0.22757330  0.65742246  0.92029987    -0.89900
H2366       H  0.28287152  0.65073830  0.90648882     0.17800
H2367       H  0.21754252  0.58919326  0.84668263     0.17800
N2368       N  0.27437414  0.57715388  0.83858926    -0.88900
H2369       H  0.23524992  0.65016947  0.94041845     0.35200
H2370       H  0.20491378  0.65633665  0.92143740     0.40300
H2371       H  0.28517690  0.58755736  0.82164530     0.39900
H2372       H  0.25789089  0.56468508  0.82912992     0.34800
C2373       C  0.11785894  0.74919691  0.76848999    -0.26900
C2374       C  0.11484853  0.75761546  0.79767188    -0.15000
C2375       C  0.10942756  0.78727648  0.80414978     0.35600
C2376       C  0.10980316  0.80789946  0.78176835    -0.26400
C2377       C  0.11605879  0.79980906  0.75294004    -0.15600
C2378       C  0.11871699  0.76973362  0.74619792     0.36700
N2379       N  0.12273642  0.75918215  0.71711943    -0.89900
H2380       H  0.12130988  0.72646908  0.76305557     0.17800
H2381       H  0.10729597  0.83068030  0.78740828     0.17800
N2382       N  0.10551335  0.79746943  0.83333119    -0.88900
H2383       H  0.14326604  0.76515552  0.70959725     0.35200
H2384       H  0.10664916  0.76818053  0.70379404     0.40300
H2385       H  0.12388516  0.79191868  0.84554976     0.39900
H2386       H  0.08729163  0.78723364  0.84213338     0.34800
C2387       C  0.31034339  0.85891580  0.97928080    -0.26900
C2388       C  0.33340474  0.87298193  0.96523894    -0.15000
C2389       C  0.35647406  0.88433924  0.98211589     0.35600
C2390       C  0.35463870  0.88334972  0.01278135    -0.26400
C2391       C  0.33032618  0.87112117  0.02663805    -0.15600
C2392       C  0.30871254  0.85771531  0.00956899     0.36700
N2393       N  0.28488058  0.84289119  0.02296042    -0.89900
H2394       H  0.29297250  0.84925214  0.96659674     0.17800
H2395       H  0.37152892  0.89330761  0.02584207     0.17800
N2396       N  0.38068765  0.89827814  0.96827628    -0.88900
H2397       H  0.28504122  0.82129854  0.01573859     0.35200
H2398       H  0.26554742  0.85259678  0.01587055     0.40300
H2399       H  0.39232020  0.88222501  0.95706489     0.39900
H2400       H  0.39493940  0.90674469  0.98384486     0.34800
C2401       C  0.19120983  0.78681716  0.89816041    -0.26900
C2402       C  0.19974178  0.75798393  0.89245357    -0.15000
C2403       C  0.22964657  0.75141120  0.88989597     0.35600
C2404       C  0.24983563  0.77407466  0.88874447    -0.26400
C2405       C  0.24098081  0.80324294  0.89072110    -0.15600
C2406       C  0.21155561  0.80952994  0.89735520     0.36700
N2407       N  0.20129483  0.83875467  0.90103610    -0.89900
H2408       H  0.16835438  0.79209615  0.90057245     0.17800
H2409       H  0.27241225  0.76894731  0.88441061     0.17800
N2410       N  0.23920592  0.72174531  0.88698521    -0.88900
H2411       H  0.20591449  0.85049726  0.88219313     0.35200
H2412       H  0.21246142  0.84812310  0.91848759     0.40300
H2413       H  0.23436855  0.71144199  0.90656905     0.39900
H2414       H  0.26179179  0.72063511  0.88459930     0.34800
C2415       C  0.24840608  0.89504706  0.77023426    -0.26900
C2416       C  0.23996196  0.89493393  0.79953340    -0.15000
C2417       C  0.21038232  0.89890990  0.80659573     0.35600
C2418       C  0.18951682  0.89987074  0.78426041    -0.26400
C2419       C  0.19787542  0.89647450  0.75512824    -0.15600
C2420       C  0.22765544  0.89589262  0.74794086     0.36700
N2421       N  0.23653625  0.89438144  0.71801572    -0.89900
H2422       H  0.27114961  0.89245813  0.76469469     0.17800
H2423       H  0.16664295  0.90037084  0.78989249     0.17800
N2424       N  0.20118302  0.89926541  0.83631457    -0.88900
H2425       H  0.25920712  0.89365929  0.71640547     0.35200
H2426       H  0.22985029  0.91368424  0.70802770     0.40300
H2427       H  0.18673396  0.88203142  0.83938830     0.39900
H2428       H  0.18984100  0.91867962  0.83998599     0.34800
C2429       C  0.35378767  0.73378907  0.89351638    -0.26900
C2430       C  0.37341366  0.71967730  0.87495277    -0.15000
C2431       C  0.39417341  0.73624797  0.85983978     0.35600
C2432       C  0.39222046  0.76682673  0.86007528    -0.26400
C2433       C  0.37025820  0.78087516  0.87596202    -0.15600
C2434       C  0.35240333  0.76433943  0.89462421     0.36700
N2435       N  0.33183511  0.77866457  0.91343310    -0.89900
H2436       H  0.33794798  0.72101620  0.90529537     0.17800
H2437       H  0.40602345  0.77932952  0.84573427     0.17800
N2438       N  0.41556902  0.72195725  0.84220510    -0.88900
H2439       H  0.32034835  0.76340538  0.92566751     0.35200
H2440       H  0.31653326  0.78948103  0.90059781     0.40300
H2441       H  0.43608495  0.72870447  0.84926886     0.39900
H2442       H  0.41294727  0.72881616  0.82074764     0.34800
C2443       C  0.39060944  0.86150710  0.76202201    -0.26900
C2444       C  0.37042347  0.87960566  0.77607355    -0.15000
C2445       C  0.35382741  0.89945852  0.75942704     0.35600
C2446       C  0.35523305  0.89836035  0.72886106    -0.26400
C2447       C  0.37309426  0.87800326  0.71479116    -0.15600
C2448       C  0.39220770  0.86063296  0.73144172     0.36700
N2449       N  0.41080313  0.83986344  0.71713962    -0.89900
H2450       H  0.40296564  0.84595996  0.77473833     0.17800
H2451       H  0.34036554  0.91144313  0.71604826     0.17800
N2452       N  0.33412467  0.91928631  0.77362240    -0.88900
H2453       H  0.42287067  0.82805392  0.73237728     0.35200
H2454       H  0.42575387  0.85153270  0.70470350     0.40300
H2455       H  0.31798785  0.90712469  0.78387599     0.39900
H2456       H  0.32353067  0.93238202  0.75834377     0.34800
C2457       C  0.35819002  0.18712397  0.51395919    -0.26900
C2458       C  0.37629721  0.16747211  0.52881222    -0.15000
C2459       C  0.39164350  0.14615050  0.51272023     0.35600
C2460       C  0.38932567  0.14576438  0.48208082    -0.26400
C2461       C  0.37239448  0.16654320  0.46726696    -0.15600
C2462       C  0.35590990  0.18680425  0.48355444     0.36700
N2463       N  0.33708689  0.20724903  0.46911213    -0.89900
H2464       H  0.34592550  0.20317015  0.52619948     0.17800
H2465       H  0.40200953  0.13020362  0.46966505     0.17800
N2466       N  0.41048355  0.12588100  0.52731203    -0.88900
H2467       H  0.32670342  0.22082183  0.48416450     0.35200
H2468       H  0.32075154  0.19536294  0.45868215     0.40300
H2469       H  0.42742157  0.13776668  0.53672451     0.39900
H2470       H  0.42007236  0.11162261  0.51236469     0.34800
C2471       C  0.19202101  0.48635324  0.63638559    -0.26900
C2472       C  0.16938880  0.47198485  0.62175426    -0.15000
C2473       C  0.14702160  0.48881903  0.60857690     0.35600
C2474       C  0.14838499  0.51938379  0.61020068    -0.26400
C2475       C  0.17200120  0.53353504  0.62343728    -0.15600
C2476       C  0.19365695  0.51676757  0.63732974     0.36700
N2477       N  0.21747394  0.53068921  0.65208659    -0.89900
H2478       H  0.20902069  0.47363310  0.64670641     0.17800
H2479       H  0.13173691  0.53216340  0.59941973     0.17800
N2480       N  0.12358731  0.47615163  0.59216180    -0.88900
H2481       H  0.23172683  0.51524571  0.66084034     0.35200
H2482       H  0.20885972  0.54238116  0.66961842     0.40300
H2483       H  0.12536582  0.45361084  0.59073909     0.39900
H2484       H  0.12518439  0.48377586  0.57083444     0.34800
C2485       C  0.19159436  0.36225062  0.51240724    -0.26900
C2486       C  0.16898390  0.37575629  0.52791992    -0.15000
C2487       C  0.14534632  0.38772768  0.51223373     0.35600
C2488       C  0.14574055  0.38713895  0.48146810    -0.26400
C2489       C  0.16925555  0.37493666  0.46600308    -0.15600
C2490       C  0.19211783  0.36172493  0.48206698     0.36700
N2491       N  0.21618971  0.34726542  0.46841596    -0.89900
H2492       H  0.20962229  0.35243447  0.52405536     0.17800
H2493       H  0.12804631  0.39715080  0.46952430     0.17800
N2494       N  0.12182233  0.40172877  0.52737634    -0.88900
H2495       H  0.22887879  0.36251186  0.45747841     0.35200
H2496       H  0.20824507  0.33181149  0.45372571     0.40300
H2497       H  0.11043902  0.38560078  0.53853080     0.39900
H2498       H  0.10709054  0.41083345  0.51262700     0.34800
C2499       C  0.29357665  0.31427614  0.60476660    -0.26900
C2500       C  0.26416025  0.30671917  0.60309502    -0.15000
C2501       C  0.25638437  0.27731923  0.59869352     0.35600
C2502       C  0.27786220  0.25580958  0.59962099    -0.26400
C2503       C  0.30703718  0.26306406  0.60471472    -0.15600
C2504       C  0.31524011  0.29270810  0.60567340     0.36700
N2505       N  0.34507052  0.30077625  0.61030178    -0.89900
H2506       H  0.29948644  0.33686917  0.60802402     0.17800
H2507       H  0.27150135  0.23316877  0.59799195     0.17800
N2508       N  0.22684900  0.26867453  0.59381831    -0.88900
H2509       H  0.34697379  0.32332364  0.61268538     0.35200
H2510       H  0.35656761  0.29533452  0.59146602     0.40300
H2511       H  0.21871067  0.28044350  0.57615981     0.39900
H2512       H  0.21437884  0.27358339  0.61213084     0.34800
C2513       C  0.36757802  0.48659403  0.84993972    -0.26900
C2514       C  0.38442656  0.47191237  0.82901428    -0.15000
C2515       C  0.40127263  0.48859478  0.80955186     0.35600
C2516       C  0.40004998  0.51900840  0.81044247    -0.26400
C2517       C  0.38243360  0.53391861  0.83049057    -0.15600
C2518       C  0.36616529  0.51738712  0.85076369     0.36700
N2519       N  0.34777900  0.53169587  0.87165070    -0.89900
H2520       H  0.35465974  0.47402982  0.86501863     0.17800
H2521       H  0.41319229  0.53101380  0.79509078     0.17800
N2522       N  0.42012096  0.47477506  0.78887434    -0.88900
H2523       H  0.33793024  0.51648540  0.88529105     0.35200
H2524       H  0.33096631  0.54190631  0.86019940     0.40300
H2525       H  0.44132284  0.48203331  0.79262748     0.39900
H2526       H  0.41388980  0.48146489  0.76806986     0.34800
C2527       C  0.29531055  0.40229535  0.68332766    -0.26900
C2528       C  0.26592225  0.40053494  0.69123030    -0.15000
C2529       C  0.25823549  0.40180058  0.72083281     0.35600
C2530       C  0.28003562  0.40065114  0.74204091    -0.26400
C2531       C  0.30940104  0.39858111  0.73423631    -0.15600
C2532       C  0.31731545  0.40110914  0.70466674     0.36700
N2533       N  0.34738872  0.39993787  0.69623653    -0.89900
H2534       H  0.30114756  0.40147018  0.66053201     0.17800
H2535       H  0.27400783  0.39934254  0.76473758     0.17800
N2536       N  0.22815258  0.40248837  0.72912441    -0.88900
H2537       H  0.34941165  0.40241986  0.67375092     0.35200
H2538       H  0.35524337  0.37913026  0.70110046     0.40300
H2539       H  0.21959066  0.42220769  0.72167701     0.39900
H2540       H  0.22609499  0.40272786  0.75175137     0.34800
C2541       C  0.40245741  0.31210798  0.70777240    -0.26900
C2542       C  0.39664885  0.30412450  0.73663561    -0.15000
C2543       C  0.39484360  0.27437382  0.74386871     0.35600
C2544       C  0.39487798  0.25349125  0.72163051    -0.26400
C2545       C  0.39708278  0.26175820  0.69242232    -0.15600
C2546       C  0.40255224  0.29105124  0.68552756     0.36700
N2547       N  0.40566157  0.29980159  0.65586308    -0.89900
H2548       H  0.40419793  0.33490088  0.70207095     0.17800
H2549       H  0.39125312  0.23081569  0.72693070     0.17800
N2550       N  0.39137377  0.26567798  0.77364942    -0.88900
H2551       H  0.42576276  0.31012995  0.65375501     0.35200
H2552       H  0.38942913  0.31509704  0.65128068     0.40300
H2553       H  0.41027325  0.27166004  0.78477564     0.39900
H2554       H  0.38981843  0.24304399  0.77518050     0.34800
C2555       C  0.09647219  0.31856034  0.98283592    -0.26900
C2556       C  0.11726062  0.33506679  0.96778351    -0.15000
C2557       C  0.13750640  0.35168390  0.98397742     0.35600
C2558       C  0.13699845  0.35057862  0.01468383    -0.26400
C2559       C  0.11714449  0.33275416  0.02942135    -0.15600
C2560       C  0.09613540  0.31727552  0.01328977     0.36700
N2561       N  0.07442475  0.30030136  0.02795421    -0.89900
H2562       H  0.08043265  0.30626258  0.97072474     0.17800
H2563       H  0.15293771  0.36267609  0.02712226     0.17800
N2564       N  0.15911539  0.36874152  0.96934749    -0.88900
H2565       H  0.06066431  0.29011994  0.01298106     0.35200
H2566       H  0.06146015  0.31465162  0.03999688     0.40300
H2567       H  0.17291992  0.35434948  0.95833332     0.39900
H2568       H  0.17204843  0.37985213  0.98439778     0.34800
C2569       C  0.23185976  0.39214999  0.86050991    -0.26900
C2570       C  0.22205055  0.36975715  0.87863752    -0.15000
C2571       C  0.24272289  0.35400891  0.89536058     0.35600
C2572       C  0.27257714  0.35827450  0.89045393    -0.26400
C2573       C  0.28223903  0.37795625  0.86937437    -0.15600
C2574       C  0.26176983  0.39604661  0.85547215     0.36700
N2575       N  0.27124400  0.41668393  0.83428076    -0.89900
H2576       H  0.21635286  0.40425874  0.84749151     0.17800
H2577       H  0.28813570  0.34410760  0.90113492     0.17800
N2578       N  0.23416033  0.33193174  0.91570212    -0.88900
H2579       H  0.26390231  0.43725471  0.84074826     0.35200
H2580       H  0.26121982  0.41160282  0.81452349     0.40300
H2581       H  0.21158536  0.33142186  0.91807812     0.39900
H2582       H  0.24238135  0.33788764  0.93605162     0.34800
C2583       C  0.11080669  0.36131372  0.76193675    -0.26900
C2584       C  0.13088239  0.37518215  0.78041840    -0.15000
C2585       C  0.15123973  0.39463345  0.76820131     0.35600
C2586       C  0.15283682  0.39737633  0.73785499    -0.26400
C2587       C  0.13523661  0.38069073  0.71928393    -0.15600
C2588       C  0.11296355  0.36383611  0.73147749     0.36700
N2589       N  0.09428979  0.34716508  0.71299679    -0.89900
H2590       H  0.09529033  0.34613535  0.77099356     0.17800
H2591       H  0.16981298  0.41064912  0.72859269     0.17800
N2592       N  0.17214027  0.41001739  0.78566986    -0.88900
H2593       H  0.07280367  0.35292707  0.71774339     0.35200
H2594       H  0.09704742  0.32522765  0.71814442     0.40300
H2595       H  0.16858656  0.40660760  0.80780253     0.39900
H2596       H  0.16889182  0.43226349  0.78219200     0.34800
C2597       C  0.30586133  0.13705105  0.98499359    -0.26900
C2598       C  0.33021715  0.12714172  0.96940415    -0.15000
C2599       C  0.35544559  0.11877386  0.98492596     0.35600
C2600       C  0.35489686  0.11859949  0.01565520    -0.26400
C2601       C  0.32962445  0.12644558  0.03104392    -0.15600
C2602       C  0.30535060  0.13711361  0.01543446     0.36700
N2603       N  0.28010036  0.14784762  0.03054883    -0.89900
H2604       H  0.28678057  0.14447931  0.97328050     0.17800
H2605       H  0.37377152  0.11098755  0.02755679     0.17800
N2606       N  0.38105329  0.10943943  0.96960976    -0.88900
H2607       H  0.26407758  0.15462966  0.01589274     0.35200
H2608       H  0.28637210  0.16632063  0.04227168     0.40300
H2609       H  0.37599786  0.09009207  0.95874664     0.39900
H2610       H  0.39775582  0.10445556  0.98422677     0.34800
C2611       C  0.35246552  0.01661679  0.88842981    -0.26900
C2612       C  0.33065971  0.03154867  0.87303974    -0.15000
C2613       C  0.31119747  0.01545067  0.85540301     0.35600
C2614       C  0.31270881  0.98510550  0.85502769    -0.26400
C2615       C  0.33323852  0.97002294  0.87182156    -0.15600
C2616       C  0.35387063  0.98605553  0.88810292     0.36700
N2617       N  0.37538682  0.97194306  0.90568729    -0.89900
H2618       H  0.36760255  0.02867534  0.90188174     0.17800
H2619       H  0.29712265  0.97311208  0.84201334     0.17800
N2620       N  0.28983513  0.02928140  0.83735527    -0.88900
H2621       H  0.38864911  0.95930793  0.89218410     0.35200
H2622       H  0.36485761  0.95823429  0.92037291     0.40300
H2623       H  0.30029205  0.04445355  0.82413553     0.39900
H2624       H  0.27467227  0.04004369  0.85042330     0.34800
C2625       C  0.21871255  0.24537841  0.90027338    -0.26900
C2626       C  0.18968573  0.23747882  0.89572555    -0.15000
C2627       C  0.18227892  0.20777264  0.89355843     0.35600
C2628       C  0.20435881  0.18671936  0.89361166    -0.26400
C2629       C  0.23369705  0.19499147  0.89475098    -0.15600
C2630       C  0.24078744  0.22451023  0.89953140     0.36700
N2631       N  0.27024669  0.23402975  0.90259443    -0.89900
H2632       H  0.22449173  0.26818055  0.90191420     0.17800
H2633       H  0.19871568  0.16414455  0.88978543     0.17800
N2634       N  0.15292038  0.19867053  0.88859367    -0.88900
H2635       H  0.28143527  0.22979110  0.88331009     0.35200
H2636       H  0.27990990  0.22215651  0.91939750     0.40300
H2637       H  0.14546051  0.20821447  0.86937119     0.39900
H2638       H  0.14012556  0.20631122  0.90577042     0.34800
C2639       C  0.39334822  0.26299800  0.85598597    -0.26900
C2640       C  0.37396254  0.28240941  0.86963459    -0.15000
C2641       C  0.35285491  0.27111542  0.88885048     0.35600
C2642       C  0.34923317  0.24085792  0.89084093    -0.26400
C2643       C  0.36616243  0.22155477  0.87425117    -0.15600
C2644       C  0.38962342  0.23266546  0.85819878     0.36700
N2645       N  0.40824467  0.21341786  0.84226357    -0.89900
H2646       H  0.40961127  0.27136833  0.84120686     0.17800
H2647       H  0.33148633  0.23242848  0.90370348     0.17800
N2648       N  0.33297731  0.28959537  0.90449047    -0.88900
H2649       H  0.42948857  0.21654458  0.84971727     0.35200
H2650       H  0.40766886  0.21966591  0.82046090     0.40300
H2651       H  0.33803282  0.31152744  0.90164277     0.39900
H2652       H  0.33584570  0.28541337  0.92663198     0.34800
C2653       C  0.35411427  0.10682800  0.75992890    -0.26900
C2654       C  0.36810823  0.12560153  0.77957864    -0.15000
C2655       C  0.38900698  0.14524615  0.76905895     0.35600
C2656       C  0.39320923  0.14794971  0.73889653    -0.26400
C2657       C  0.37670482  0.13157376  0.71907346    -0.15600
C2658       C  0.35837472  0.10951182  0.72969131     0.36700
N2659       N  0.34191652  0.09203626  0.70972277    -0.89900
H2660       H  0.33789656  0.09185836  0.76802965     0.17800
H2661       H  0.40713587  0.16506620  0.73074997     0.17800
N2662       N  0.40375903  0.16436516  0.78888044    -0.88900
H2663       H  0.32870290  0.07742576  0.72096624     0.35200
H2664       H  0.35670946  0.07950329  0.69778409     0.40300
H2665       H  0.38808162  0.17827072  0.79775950     0.39900
H2666       H  0.41845849  0.17757119  0.77774504     0.34800
C2667       C  0.14124691  0.98466224  0.64966701    -0.26900
C2668       C  0.11813000  0.97022824  0.66338017    -0.15000
C2669       C  0.09518928  0.98665488  0.67547474     0.35600
C2670       C  0.09650735  0.01712184  0.67496944    -0.26400
C2671       C  0.12015505  0.03171788  0.66246263    -0.15600
C2672       C  0.14266874  0.01535129  0.64935989     0.36700
N2673       N  0.16736162  0.02981197  0.63695255    -0.89900
H2674       H  0.15884855  0.97197025  0.64038137     0.17800
H2675       H  0.07900635  0.02963893  0.68468819     0.17800
N2676       N  0.07062338  0.97227472  0.68828005    -0.88900
H2677       H  0.18197944  0.01462207  0.62831146     0.35200
H2678       H  0.17830128  0.04047771  0.65380917     0.40300
H2679       H  0.05999741  0.96079619  0.67175976     0.39900
H2680       H  0.05567596  0.98747820  0.69631289     0.34800
C2681       C  0.11556129  0.23885397  0.65008552    -0.26900
C2682       C  0.13020643  0.22098581  0.63003841    -0.15000
C2683       C  0.14403691  0.23386452  0.60609481     0.35600
C2684       C  0.14527056  0.26446988  0.60402915    -0.26400
C2685       C  0.13319300  0.28228993  0.62584832    -0.15600
C2686       C  0.11711195  0.26934744  0.64836013     0.36700
N2687       N  0.10493620  0.28721728  0.67098092    -0.89900
H2688       H  0.10521484  0.22895347  0.66874723     0.17800
H2689       H  0.15819862  0.27421141  0.58697815     0.17800
N2690       N  0.15888527  0.21603861  0.58527425    -0.88900
H2691       H  0.09452991  0.27439165  0.68652744     0.35200
H2692       H  0.08890390  0.30032354  0.66153961     0.40300
H2693       H  0.18080189  0.22200891  0.58518902     0.39900
H2694       H  0.15024936  0.22063443  0.56476216     0.34800
C2695       C  0.26689906  0.13911572  0.60256270    -0.26900
C2696       C  0.28579939  0.12524559  0.62218764    -0.15000
C2697       C  0.27415905  0.10564894  0.64269531     0.35600
C2698       C  0.24391482  0.10384029  0.64598036    -0.26400
C2699       C  0.22503289  0.12075461  0.62891688    -0.15600
C2700       C  0.23662805  0.13706496  0.60574951     0.36700
N2701       N  0.21833629  0.15406707  0.58711040    -0.89900
H2702       H  0.27560248  0.15429702  0.58684813     0.17800
H2703       H  0.23521109  0.09114298  0.66377081     0.17800
N2704       N  0.29236227  0.08948718  0.66231848    -0.88900
H2705       H  0.20665368  0.16892331  0.59982013     0.35200
H2706       H  0.20355543  0.14005327  0.57702503     0.40300
H2707       H  0.31425247  0.09191618  0.65687682     0.39900
H2708       H  0.28777566  0.06742256  0.65926616     0.34800
C2709       C  0.11066604  0.22732717  0.74905459    -0.26900
C2710       C  0.10979655  0.19807378  0.75753994    -0.15000
C2711       C  0.10535640  0.19119045  0.78710422     0.35600
C2712       C  0.10531827  0.21373986  0.80787886    -0.26400
C2713       C  0.10953563  0.24280816  0.79952275    -0.15600
C2714       C  0.11033256  0.24967669  0.76971569     0.36700
N2715       N  0.11156635  0.27933139  0.76035118    -0.89900
H2716       H  0.11324757  0.23284312  0.72631317     0.17800
H2717       H  0.10416719  0.20834919  0.83074894     0.17800
N2718       N  0.10340829  0.16136931  0.79619194    -0.88900
H2719       H  0.09350624  0.28314084  0.74707884     0.35200
H2720       H  0.13029595  0.28199808  0.74778817     0.40300
H2721       H  0.08396502  0.15302634  0.78790813     0.39900
H2722       H  0.10184516  0.16005512  0.81881694     0.34800
C2723       C  0.20456015  0.10692110  0.81333067    -0.26900
C2724       C  0.23396172  0.10360217  0.80589560    -0.15000
C2725       C  0.24147187  0.09594140  0.77712181     0.35600
C2726       C  0.21985756  0.09485030  0.75580188    -0.26400
C2727       C  0.19088536  0.10155818  0.76259032    -0.15600
C2728       C  0.18284396  0.10622535  0.79180111     0.36700
N2729       N  0.15326177  0.11344217  0.79893805    -0.89900
H2730       H  0.19883284  0.11287588  0.83541051     0.17800
H2731       H  0.22608022  0.09120573  0.73336121     0.17800
N2732       N  0.27095932  0.09025932  0.76876465    -0.88900
H2733       H  0.15121277  0.11774234  0.82116795     0.35200
H2734       H  0.14058124  0.09509855  0.79461904     0.40300
H2735       H  0.27917131  0.07374916  0.78205420     0.39900
H2736       H  0.28332559  0.10899728  0.77202716     0.34800
C2737       C  0.48706215  0.14262041  0.62013304    -0.26900
C2738       C  0.47265121  0.16960562  0.62233381    -0.15000
C2739       C  0.48960234  0.19509406  0.62610343     0.35600
C2740       C  0.51978812  0.19321495  0.62609350    -0.26400
C2741       C  0.53438476  0.16660602  0.62238673    -0.15600
C2742       C  0.51778390  0.14079173  0.62022985     0.36700
N2743       N  0.53193011  0.11303044  0.61717626    -0.89900
H2744       H  0.47434880  0.12296775  0.61764049     0.17800
H2745       H  0.53200417  0.21317777  0.62880037     0.17800
N2746       N  0.47705360  0.22335418  0.63063054    -0.88900
H2747       H  0.51657271  0.09656390  0.61419110     0.35200
H2748       H  0.54232358  0.10850328  0.63687446     0.40300
H2749       H  0.46238599  0.22234343  0.64793194     0.39900
H2750       H  0.46643216  0.23011994  0.61174099     0.34800
C2751       C  0.61317091  0.14457089  0.51500430    -0.26900
C2752       C  0.63071322  0.16496429  0.52956044    -0.15000
C2753       C  0.64901098  0.18323861  0.51291270     0.35600
C2754       C  0.64733912  0.18260953  0.48258962    -0.26400
C2755       C  0.62808449  0.16391676  0.46810829    -0.15600
C2756       C  0.61168970  0.14385535  0.48452855     0.36700
N2757       N  0.59224581  0.12365117  0.47098909    -0.89900
H2758       H  0.59938653  0.13009005  0.52736906     0.17800
H2759       H  0.66071533  0.19746603  0.47019113     0.17800
N2760       N  0.66977461  0.20241284  0.52605642    -0.88900
H2761       H  0.60433422  0.10995256  0.45741242     0.35200
H2762       H  0.57734725  0.13527866  0.45832483     0.40300
H2763       H  0.68283000  0.19037812  0.54028020     0.39900
H2764       H  0.65888019  0.21864606  0.53767384     0.34800
C2765       C  0.82041812  0.48417255  0.59532484    -0.26900
C2766       C  0.83437703  0.46918171  0.61795325    -0.15000
C2767       C  0.84845042  0.48522080  0.64012904     0.35600
C2768       C  0.84779060  0.51594157  0.63934640    -0.26400
C2769       C  0.83278560  0.53071734  0.61724196    -0.15600
C2770       C  0.81957822  0.51466181  0.59465137     0.36700
N2771       N  0.80527066  0.52947669  0.57109411    -0.89900
H2772       H  0.80993679  0.47197306  0.57807988     0.17800
H2773       H  0.85784480  0.52835867  0.65668277     0.17800
N2774       N  0.86226908  0.47036270  0.66389997    -0.88900
H2775       H  0.79653812  0.51454581  0.55631412     0.35200
H2776       H  0.82106523  0.54123970  0.55983216     0.40300
H2777       H  0.84609235  0.45940767  0.67543504     0.39900
H2778       H  0.87149454  0.48531191  0.67835504     0.34800
C2779       C  0.81806192  0.35453520  0.51494041    -0.26900
C2780       C  0.83789220  0.37192449  0.53028456    -0.15000
C2781       C  0.85874750  0.38812118  0.51461662     0.35600
C2782       C  0.85814818  0.38769063  0.48390011    -0.26400
C2783       C  0.83680506  0.37187383  0.46879450    -0.15600
C2784       C  0.81734198  0.35423302  0.48451917     0.36700
N2785       N  0.79648615  0.33642394  0.46945544    -0.89900
H2786       H  0.80243924  0.34159535  0.52682898     0.17800
H2787       H  0.87322211  0.40105116  0.47179140     0.17800
N2788       N  0.87941900  0.40600389  0.52977372    -0.88900
H2789       H  0.78357164  0.32496917  0.48416465     0.35200
H2790       H  0.80804772  0.32087621  0.45747486     0.40300
H2791       H  0.86783258  0.42251064  0.54038234     0.39900
H2792       H  0.89327823  0.41629570  0.51506144     0.34800
C2793       C  0.71805365  0.30554510  0.60489794    -0.26900
C2794       C  0.74724163  0.29822584  0.60998123    -0.15000
C2795       C  0.75526689  0.26860940  0.61178733     0.35600
C2796       C  0.73359837  0.24720592  0.61182303    -0.26400
C2797       C  0.70400268  0.25471081  0.61017631    -0.15600
C2798       C  0.69621820  0.28418882  0.60536007     0.36700
N2799       N  0.66619969  0.29277439  0.60309426    -0.89900
H2800       H  0.71189991  0.32826280  0.60324144     0.17800
H2801       H  0.73982567  0.22461519  0.61459826     0.17800
N2802       N  0.78533817  0.26047642  0.61465121    -0.88900
H2803       H  0.66443791  0.31495477  0.59837829     0.35200
H2804       H  0.65672383  0.28996511  0.62353861     0.40300
H2805       H  0.79576537  0.26649665  0.59543182     0.39900
H2806       H  0.78751030  0.23789632  0.61637319     0.34800
C2807       C  0.63890861  0.48376610  0.80763369    -0.26900
C2808       C  0.62557594  0.46831901  0.83028042    -0.15000
C2809       C  0.61313631  0.48400505  0.85368212     0.35600
C2810       C  0.61328006  0.51477212  0.85316055    -0.26400
C2811       C  0.62510549  0.52996236  0.82949011    -0.15600
C2812       C  0.63880576  0.51419728  0.80706803     0.36700
N2813       N  0.65282062  0.52909242  0.78364846    -0.89900
H2814       H  0.64915288  0.47209973  0.78985601     0.17800
H2815       H  0.60289728  0.52688405  0.87053762     0.17800
N2816       N  0.59939399  0.46880546  0.87717595    -0.88900
H2817       H  0.64325162  0.52231355  0.76416226     0.35200
H2818       H  0.67468043  0.52276941  0.78332343     0.40300
H2819       H  0.58130675  0.45798119  0.86867268     0.39900
H2820       H  0.59147059  0.48353591  0.89263263     0.34800
C2821       C  0.51871631  0.38054887  0.85511623    -0.26900
C2822       C  0.53344675  0.37056853  0.83022607    -0.15000
C2823       C  0.51723084  0.35904447  0.80692919     0.35600
C2824       C  0.48691071  0.35984541  0.80777433    -0.26400
C2825       C  0.47193245  0.37187794  0.83153655    -0.15600
C2826       C  0.48798651  0.38121130  0.85609944     0.36700
N2827       N  0.47328759  0.39270210  0.88118408    -0.89900
H2828       H  0.53114968  0.38904482  0.87324456     0.17800
H2829       H  0.47497726  0.35161573  0.78916974     0.17800
N2830       N  0.53151898  0.34665144  0.78211776    -0.88900
H2831       H  0.48834222  0.39993273  0.89661949     0.35200
H2832       H  0.46208527  0.37551517  0.89085542     0.40300
H2833       H  0.52480525  0.35809141  0.76366560     0.39900
H2834       H  0.52465679  0.32509253  0.77989355     0.34800
C2835       C  0.61944677  0.27284988  0.74544286    -0.26900
C2836       C  0.61256066  0.30147490  0.73758283    -0.15000
C2837       C  0.60205371  0.30713129  0.70924106     0.35600
C2838       C  0.60207259  0.28445551  0.68843243    -0.26400
C2839       C  0.61232622  0.25659437  0.69573544    -0.15600
C2840       C  0.61953139  0.25052482  0.72490549     0.36700
N2841       N  0.62855238  0.22192147  0.73349002    -0.89900
H2842       H  0.62666849  0.26804511  0.76736627     0.17800
H2843       H  0.59634942  0.28910839  0.66607242     0.17800
N2844       N  0.59366542  0.33612041  0.70107685    -0.88900
H2845       H  0.61515790  0.21525592  0.75053329     0.35200
H2846       H  0.64977602  0.22324585  0.74155572     0.40300
H2847       H  0.57493486  0.34143042  0.71282818     0.39900
H2848       H  0.58779213  0.33676626  0.67913063     0.34800
C2849       C  0.72629521  0.40077073  0.74219207    -0.26900
C2850       C  0.69709730  0.39652507  0.73447717    -0.15000
C2851       C  0.68923859  0.39573275  0.70475330     0.35600
C2852       C  0.71122566  0.39644396  0.68349100    -0.26400
C2853       C  0.74060354  0.39702555  0.69160608    -0.15600
C2854       C  0.74815131  0.40089249  0.72102381     0.36700
N2855       N  0.77820408  0.40299459  0.72932292    -0.89900
H2856       H  0.73226576  0.40178589  0.76497242     0.17800
H2857       H  0.70559756  0.39335333  0.66081579     0.17800
N2858       N  0.65942394  0.39151699  0.69631465    -0.88900
H2859       H  0.78017102  0.40507147  0.75186951     0.35200
H2860       H  0.78630003  0.42219033  0.72033087     0.40300
H2861       H  0.65326381  0.37071193  0.70303188     0.39900
H2862       H  0.65739979  0.39172685  0.67368129     0.34800
C2863       C  0.01899101  0.15080208  0.67403068    -0.26900
C2864       C  0.03416543  0.12970413  0.65798232    -0.15000
C2865       C  0.01834737  0.10977134  0.64065886     0.35600
C2866       C  0.98780059  0.11018797  0.64131030    -0.26400
C2867       C  0.97276081  0.12983725  0.65931363    -0.15600
C2868       C  0.98864248  0.15108732  0.67490191     0.36700
N2869       N  0.97454376  0.17310678  0.69199625    -0.89900
H2870       H  0.03088774  0.16644097  0.68707784     0.17800
H2871       H  0.97585049  0.09385632  0.62921962     0.17800
N2872       N  0.03264860  0.08770188  0.62385298    -0.88900
H2873       H  0.96329109  0.16331161  0.70903365     0.35200
H2874       H  0.95968683  0.18416348  0.67877436     0.40300
H2875       H  0.04559599  0.07518146  0.63775272     0.39900
H2876       H  0.04609857  0.09785623  0.60869079     0.34800
C2877       C  0.86475998  0.98656795  0.69248812    -0.26900
C2878       C  0.87608988  0.97004550  0.66938843    -0.15000
C2879       C  0.88792799  0.98464794  0.64510369     0.35600
C2880       C  0.88862638  0.01537766  0.64479905    -0.26400
C2881       C  0.87844750  0.03168643  0.66856037    -0.15600
C2882       C  0.86564856  0.01708914  0.69229802     0.36700
N2883       N  0.85363698  0.03337257  0.71622576    -0.89900
H2884       H  0.85532808  0.97555372  0.71099697     0.17800
H2885       H  0.89842115  0.02658395  0.62660811     0.17800
N2886       N  0.90035868  0.96832354  0.62148008    -0.88900
H2887       H  0.84524756  0.01942027  0.73201991     0.35200
H2888       H  0.83608181  0.04549312  0.70826368     0.40300
H2889       H  0.91851355  0.95721421  0.62956235     0.39900
H2890       H  0.90802195  0.98231005  0.60535089     0.34800
C2891       C  0.76449509  0.10139711  0.64853898    -0.26900
C2892       C  0.78212485  0.11795397  0.62998948    -0.15000
C2893       C  0.76916738  0.13294494  0.60669629     0.35600
C2894       C  0.73863964  0.13352353  0.60408136    -0.26400
C2895       C  0.72098489  0.12004202  0.62498324    -0.15600
C2896       C  0.73402253  0.10261590  0.64650785     0.36700
N2897       N  0.71620864  0.08889981  0.66812464    -0.89900
H2898       H  0.77444068  0.09014327  0.66671133     0.17800
H2899       H  0.72876600  0.14752559  0.58788836     0.17800
N2900       N  0.78667654  0.15015587  0.58767537    -0.88900
H2901       H  0.72909873  0.07761688  0.68309175     0.35200
H2902       H  0.70339638  0.07339376  0.65753450     0.40300
H2903       H  0.77979233  0.17180643  0.58937185     0.39900
H2904       H  0.78279467  0.14318584  0.56638195     0.34800
C2905       C  0.86213628  0.26510479  0.60622655    -0.26900
C2906       C  0.87621810  0.28180626  0.62767742    -0.15000
C2907       C  0.89362639  0.26762955  0.64849323     0.35600
C2908       C  0.89423921  0.23701487  0.64932266    -0.26400
C2909       C  0.87733349  0.22031525  0.63007705    -0.15600
C2910       C  0.86219347  0.23451672  0.60749618     0.36700
N2911       N  0.84495208  0.21851607  0.58707217    -0.89900
H2912       H  0.84850427  0.27585890  0.59028695     0.17800
H2913       H  0.90569455  0.22618386  0.66685850     0.17800
N2914       N  0.90847561  0.28443282  0.67028145    -0.88900
H2915       H  0.82932217  0.20670309  0.59848889     0.35200
H2916       H  0.85857243  0.20370358  0.57640226     0.40300
H2917       H  0.92402148  0.29710076  0.65968922     0.39900
H2918       H  0.91982490  0.27078855  0.68450845     0.34800
C2919       C  0.69453146  0.13326028  0.01586068    -0.26900
C2920       C  0.66965334  0.12244381  0.02973306    -0.15000
C2921       C  0.64589669  0.11326196  0.01249753     0.35600
C2922       C  0.64814279  0.11413346  0.98180718    -0.26400
C2923       C  0.67376992  0.12365889  0.96807197    -0.15600
C2924       C  0.69676809  0.13406958  0.98555481     0.36700
N2925       N  0.72258599  0.14567360  0.97265791    -0.89900
H2926       H  0.71271397  0.14103141  0.02870273     0.17800
H2927       H  0.63031892  0.10617475  0.96862259     0.17800
N2928       N  0.62010696  0.10214308  0.02605768    -0.88900
H2929       H  0.74036075  0.13351251  0.98004830     0.35200
H2930       H  0.72511825  0.16708480  0.97995162     0.40300
H2931       H  0.62581019  0.08294775  0.03683486     0.39900
H2932       H  0.60467951  0.09643293  0.01035653     0.34800
C2933       C  0.65532257  0.01264616  0.85945293    -0.26900
C2934       C  0.67306230  0.02694261  0.87992827    -0.15000
C2935       C  0.68780092  0.01006304  0.90106957     0.35600
C2936       C  0.68570709  0.97984790  0.90044069    -0.26400
C2937       C  0.66925947  0.96532592  0.87924291    -0.15600
C2938       C  0.65324253  0.98191346  0.85887388     0.36700
N2939       N  0.63611882  0.96764866  0.83695964    -0.89900
H2940       H  0.64376210  0.02541900  0.84337299     0.17800
H2941       H  0.69747575  0.96748002  0.91671671     0.17800
N2942       N  0.70465291  0.02288040  0.92397331    -0.88900
H2943       H  0.62701669  0.98294410  0.82280751     0.35200
H2944       H  0.61867531  0.95760116  0.84739739     0.40300
H2945       H  0.69185146  0.03828076  0.93483954     0.39900
H2946       H  0.72290935  0.03299035  0.91516150     0.34800
C2947       C  0.61172133  0.13908765  0.76860682    -0.26900
C2948       C  0.63135487  0.11797057  0.77864002    -0.15000
C2949       C  0.64292111  0.09778123  0.75861338     0.35600
C2950       C  0.63867975  0.10186804  0.72858751    -0.26400
C2951       C  0.62294199  0.12592621  0.71845678    -0.15600
C2952       C  0.60710864  0.14299537  0.73857706     0.36700
N2953       N  0.58836935  0.16582869  0.72824953    -0.89900
H2954       H  0.60243113  0.15448278  0.78390777     0.17800
H2955       H  0.65049425  0.08826966  0.71333079     0.17800
N2956       N  0.66076672  0.07432951  0.76863644    -0.88900
H2957       H  0.57824651  0.17635645  0.74570560     0.35200
H2958       H  0.57179038  0.15607038  0.71613642     0.40300
H2959       H  0.68049894  0.07547576  0.75760470     0.39900
H2960       H  0.65080922  0.05488994  0.76234918     0.34800
C2961       C  0.61610777  0.25927622  0.84473724    -0.26900
C2962       C  0.63103135  0.27769730  0.86405617    -0.15000
C2963       C  0.64703882  0.26526369  0.88697380     0.35600
C2964       C  0.64978067  0.23473502  0.88884071    -0.26400
C2965       C  0.63702453  0.21647572  0.86784342    -0.15600
C2966       C  0.61914287  0.22882539  0.84625297     0.36700
N2967       N  0.60638044  0.21049404  0.82435330    -0.89900
H2968       H  0.60431072  0.26879712  0.82667811     0.17800
H2969       H  0.66413174  0.22546385  0.90508938     0.17800
N2970       N  0.66263353  0.28358301  0.90675384    -0.88900
H2971       H  0.59452164  0.22292692  0.80944803     0.35200
H2972       H  0.59151478  0.19683837  0.83468754     0.40300
H2973       H  0.68474543  0.27843309  0.90520821     0.39900
H2974       H  0.65577767  0.27864393  0.92781669     0.34800
C2975       C  0.79993629  0.09829541  0.81300328    -0.26900
C2976       C  0.77062330  0.09737914  0.80444750    -0.15000
C2977       C  0.76376550  0.09423580  0.77478645     0.35600
C2978       C  0.78574624  0.09667334  0.75397979    -0.26400
C2979       C  0.81456385  0.10178098  0.76231395    -0.15600
C2980       C  0.82217634  0.10060529  0.79204922     0.36700
N2981       N  0.85193877  0.10412343  0.80092424    -0.89900
H2982       H  0.80525553  0.10036470  0.83586241     0.17800
H2983       H  0.78008877  0.09658503  0.73109404     0.17800
N2984       N  0.73412893  0.09026983  0.76597186    -0.88900
H2985       H  0.85377766  0.10248006  0.82351106     0.35200
H2986       H  0.85827057  0.12524382  0.79549788     0.40300
H2987       H  0.72763010  0.07012346  0.77416363     0.39900
H2988       H  0.73257712  0.08885437  0.74333578     0.34800
C2989       C  0.88028791  0.35515762  0.98351333    -0.26900
C2990       C  0.87696225  0.32901454  0.96786311    -0.15000
C2991       C  0.87213966  0.30304795  0.98359435     0.35600
C2992       C  0.87175379  0.30354338  0.01400972    -0.26400
C2993       C  0.87585536  0.32942042  0.02975973    -0.15600
C2994       C  0.87984015  0.35564155  0.01410862     0.36700
N2995       N  0.88461177  0.38285899  0.02852165    -0.89900
H2996       H  0.88401943  0.37530549  0.97195496     0.17800
H2997       H  0.86818183  0.28325638  0.02541054     0.17800
N2998       N  0.86733025  0.27594674  0.96888168    -0.88900
H2999       H  0.90254957  0.38067170  0.04233652     0.35200
H3000       H  0.86624239  0.38794452  0.04089143     0.40300
H3001       H  0.84706501  0.26793381  0.97523442     0.39900
H3002       H  0.88326917  0.26117441  0.97569106     0.34800
C3003       C  0.98473102  0.32011956  0.85053042    -0.26900
C3004       C  0.97021536  0.33744983  0.87101898    -0.15000
C3005       C  0.98636813  0.35642570  0.88897488     0.35600
C3006       C  0.01698236  0.35595949  0.88748018    -0.26400
C3007       C  0.03153928  0.33692586  0.86844554    -0.15600
C3008       C  0.01501862  0.31971651  0.84892709     0.36700
N3009       N  0.02829279  0.30168036  0.82715664    -0.89900
H3010       H  0.97238904  0.30609293  0.83612946     0.17800
H3011       H  0.02951894  0.36925408  0.90236976     0.17800
N3012       N  0.97183018  0.37453686  0.90996273    -0.88900
H3013       H  0.03977764  0.28479227  0.83709643     0.35200
H3014       H  0.04267165  0.31436172  0.81503605     0.40300
H3015       H  0.96004411  0.39026958  0.89852531     0.39900
H3016       H  0.98697494  0.38587282  0.92257666     0.34800
C3017       C  0.81512742  0.21306234  0.89415150    -0.26900
C3018       C  0.80557125  0.24131240  0.88716306    -0.15000
C3019       C  0.77552202  0.24643721  0.88346127     0.35600
C3020       C  0.75614520  0.22316667  0.88396569    -0.26400
C3021       C  0.76601220  0.19452562  0.88748408    -0.15600
C3022       C  0.79562706  0.18940937  0.89394543     0.36700
N3023       N  0.80615601  0.16023138  0.89814237    -0.89900
H3024       H  0.83815330  0.20898424  0.89714147     0.17800
H3025       H  0.73332613  0.22737973  0.87963011     0.17800
N3026       N  0.76459188  0.27509373  0.87780106    -0.88900
H3027       H  0.82839357  0.16034534  0.90289764     0.35200
H3028       H  0.80385708  0.14909068  0.87843104     0.40300
H3029       H  0.74864215  0.27973884  0.89331812     0.39900
H3030       H  0.75443644  0.27486940  0.85745655     0.34800
C3031       C  0.90454176  0.21958058  0.80329297    -0.26900
C3032       C  0.89412453  0.24723371  0.79529530    -0.15000
C3033       C  0.88851911  0.25299956  0.76572404     0.35600
C3034       C  0.89024344  0.23042341  0.74541863    -0.26400
C3035       C  0.89682513  0.20190207  0.75411227    -0.15600
C3036       C  0.90561011  0.19675485  0.78296069     0.36700
N3037       N  0.91312040  0.16799707  0.79229231    -0.89900
H3038       H  0.90930103  0.21486923  0.82586618     0.17800
H3039       H  0.88414839  0.23480841  0.72307412     0.17800
N3040       N  0.87975926  0.28141396  0.75636169    -0.88900
H3041       H  0.89879483  0.16204259  0.80885106     0.35200
H3042       H  0.93407984  0.16866930  0.80108206     0.40300
H3043       H  0.85924864  0.27974236  0.74667271     0.39900
H3044       H  0.89439345  0.28816097  0.74044276     0.34800
C3045       C  0.85618396  0.40199942  0.73842517    -0.26900
C3046       C  0.87345631  0.38433107  0.72032741    -0.15000
C3047       C  0.89620007  0.36814859  0.73283318     0.35600
C3048       C  0.89825155  0.36610221  0.76333062    -0.26400
C3049       C  0.87809108  0.38045316  0.78141820    -0.15600
C3050       C  0.85828324  0.40020022  0.76891372     0.36700
N3051       N  0.83830242  0.41589339  0.78717696    -0.89900
H3052       H  0.83896766  0.41488756  0.72878202     0.17800
H3053       H  0.91357554  0.35081382  0.77273118     0.17800
N3054       N  0.91544449  0.35166600  0.71466620    -0.88900
H3055       H  0.82475959  0.42919534  0.77463760     0.35200
H3056       H  0.85055814  0.42979462  0.80035336     0.40300
H3057       H  0.91366292  0.32973942  0.72019066     0.39900
H3058       H  0.93670224  0.35823228  0.71926566     0.34800
C3059       C  0.77017602  0.39719533  0.85879859    -0.26900
C3060       C  0.78194224  0.37660079  0.87785934    -0.15000
C3061       C  0.76334950  0.36168393  0.89692333     0.35600
C3062       C  0.73304937  0.36392764  0.89337175    -0.26400
C3063       C  0.72132848  0.38131058  0.87122740    -0.15600
C3064       C  0.73997953  0.40006013  0.85555530     0.36700
N3065       N  0.72908544  0.42008264  0.83414650    -0.89900
H3066       H  0.78439037  0.40890020  0.84416919     0.17800
H3067       H  0.71897903  0.34968238  0.90569736     0.17800
N3068       N  0.77533811  0.34250872  0.91832669    -0.88900
H3069       H  0.73577054  0.44092127  0.84033972     0.35200
H3070       H  0.70637793  0.42068792  0.83423440     0.40300
H3071       H  0.76719478  0.32167114  0.91464375     0.39900
H3072       H  0.76794392  0.34939171  0.93869567     0.34800
loop_ 
_geom_bond_atom_site_label_1 
_geom_bond_atom_site_label_2 
_geom_bond_distance 
_geom_bond_site_symmetry_2 
_ccdc_geom_bond_type 
Fe1          O17   2.046       .  S
Fe1           O7   2.042       .  S
Fe1          O14   2.047       .  S
Fe1           O6   2.044       .  S
Fe1          O12   1.965       .  S
Fe2           O5   2.054       .  S
Fe2           O9   2.080       .  S
Fe2          O13   2.065       .  S
Fe2          O18   2.057       .  S
Fe2          O12   1.979       .  S
Fe3          O21   2.092       .  S
Fe3           O8   2.071       .  S
Fe3          O15   2.089       .  S
Fe3           O4   2.104       .  S
Fe3          O12   1.994       .  S
O4           C11   1.275       .  A
O5           C19   1.268       .  A
O6           C11   1.264       .  A
O7           C10   1.263       .  A
O8           C20   1.268       .  A
O9           C22   1.271       .  A
C10          O15   1.269       .  A
C10        C3060   1.471       .  S
C11        C3049   1.479       .  S
O13          C16   1.267       .  A
O14          C16   1.265       .  A
C16        C3032   1.479       .  S
O17          C22   1.266       .  A
O18          C20   1.268       .  A
C19          O21   1.275       .  A
C19        C2990   1.495       .  S
C20        C3004   1.477       .  S
C22        C3018   1.482       .  S
Fe23         O39   2.046       .  S
Fe23         O29   2.044       .  S
Fe23         O36   2.042       .  S
Fe23         O28   2.054       .  S
Fe23         O34   1.963       .  S
Fe24         O27   2.060       .  S
Fe24         O31   2.079       .  S
Fe24         O35   2.078       .  S
Fe24         O40   2.055       .  S
Fe24         O34   1.984       .  S
Fe25         O43   2.090       .  S
Fe25         O30   2.090       .  S
Fe25         O37   2.106       .  S
Fe25         O26   2.098       .  S
Fe25         O34   1.993       .  S
O26          C33   1.274       .  A
O27          C41   1.271       .  A
O28          C33   1.266       .  A
O29          C32   1.263       .  A
O30          C42   1.271       .  A
O31          C44   1.268       .  A
C32          O37   1.273       .  A
C32        C2948   1.480       .  S
C33        C2965   1.480       .  S
O35          C38   1.270       .  A
O36          C38   1.267       .  A
C38        C3021   1.476       .  S
O39          C44   1.265       .  A
O40          C42   1.267       .  A
C41          O43   1.276       .  A
C41        C2934   1.487       .  S
C42        C2923   1.494       .  S
C44        C2976   1.477       .  S
Fe45         O61   2.032       .  S
Fe45         O51   2.051       .  S
Fe45         O58   2.049       .  S
Fe45         O50   2.028       .  S
Fe45         O56   1.961       .  S
Fe46         O49   2.047       .  S
Fe46         O53   2.077       .  S
Fe46         O57   2.070       .  S
Fe46         O62   2.060       .  S
Fe46         O56   1.982       .  S
Fe47         O65   2.084       .  S
Fe47         O52   2.090       .  S
Fe47         O59   2.100       .  S
Fe47         O48   2.104       .  S
Fe47         O56   1.993       .  S
O48          C55   1.272       .  A
O49          C63   1.264       .  A
O50          C55   1.260       .  A
O51          C54   1.267       .  A
O52          C64   1.276       .  A
O53          C66   1.269       .  A
C54          O59   1.275       .  A
C54        C2909   1.480       .  S
C55        C2892   1.477       .  S
O57          C60   1.266       .  A
O58          C60   1.266       .  A
C60        C2979   1.474       .  S
O61          C66   1.264       .  A
O62          C64   1.272       .  A
C63          O65   1.269       .  A
C63        C2867   1.478       .  S
C64        C2881   1.484       .  S
C66        C3035   1.474       .  S
Fe67         O83   2.043       .  S
Fe67         O73   2.042       .  S
Fe67         O80   2.051       .  S
Fe67         O72   2.039       .  S
Fe67         O78   1.962       .  S
Fe68         O71   2.052       .  S
Fe68         O75   2.074       .  S
Fe68         O79   2.071       .  S
Fe68         O84   2.050       .  S
Fe68         O78   1.980       .  S
Fe69         O87   2.098       .  S
Fe69         O74   2.076       .  S
Fe69         O81   2.089       .  S
Fe69         O70   2.110       .  S
Fe69         O78   1.997       .  S
O70          C77   1.276       .  A
O71          C85   1.271       .  A
O72          C77   1.264       .  A
O73          C76   1.263       .  A
O74          C86   1.268       .  A
O75          C88   1.267       .  A
C76          O81   1.269       .  A
C76        C3063   1.473       .  S
C77        C2962   1.480       .  S
O79          C82   1.268       .  A
O80          C82   1.268       .  A
C82        C2836   1.479       .  S
O83          C88   1.264       .  A
O84          C86   1.266       .  A
C85          O87   1.277       .  A
C85        C2808   1.487       .  S
C86        C2822   1.482       .  S
C88        C2850   1.476       .  S
Fe89        O105   2.046       .  S
Fe89         O95   2.059       .  S
Fe89        O102   2.051       .  S
Fe89         O94   2.035       .  S
Fe89        O100   1.955       .  S
Fe90         O93   2.047       .  S
Fe90         O97   2.084       .  S
Fe90        O101   2.070       .  S
Fe90        O106   2.071       .  S
Fe90        O100   1.969       .  S
Fe91        O109   2.094       .  S
Fe91         O96   2.078       .  S
Fe91        O103   2.093       .  S
Fe91         O92   2.116       .  S
Fe91        O100   1.979       .  S
O92          C99   1.276       .  A
O93         C107   1.267       .  A
O94          C99   1.263       .  A
O95          C98   1.267       .  A
O96         C108   1.274       .  A
O97         C110   1.272       .  A
C98         O103   1.272       .  A
C98        C2906   1.479       .  S
C99        C3046   1.482       .  S
O101        C104   1.267       .  A
O102        C104   1.266       .  A
C104       C2853   1.471       .  S
O105        C110   1.266       .  A
O106        C108   1.273       .  A
C107        O109   1.273       .  A
C107       C2780   1.486       .  S
C108       C2766   1.485       .  S
C110       C2794   1.481       .  S
Fe111       O127   2.042       .  S
Fe111       O117   2.038       .  S
Fe111       O124   2.052       .  S
Fe111       O116   2.049       .  S
Fe111       O122   1.947       .  S
Fe112       O115   2.060       .  S
Fe112       O119   2.079       .  S
Fe112       O123   2.080       .  S
Fe112       O128   2.055       .  S
Fe112       O122   1.958       .  S
Fe113       O131   2.079       .  S
Fe113       O118   2.093       .  S
Fe113       O125   2.118       .  S
Fe113       O114   2.088       .  S
Fe113       O122   1.973       .  S
O114        C121   1.269       .  A
O115        C129   1.271       .  A
O116        C121   1.263       .  A
O117        C120   1.266       .  A
O118        C130   1.275       .  A
O119        C132   1.269       .  A
C120        O125   1.279       .  A
C120       C2951   1.480       .  S
C121       C2895   1.473       .  S
O123        C126   1.272       .  A
O124        C126   1.269       .  A
C126       C2797   1.486       .  S
O127        C132   1.264       .  A
O128        C130   1.269       .  A
C129        O131   1.272       .  A
C129       C2741   1.491       .  S
C130       C2752   1.485       .  S
C132       C2839   1.477       .  S
Fe133       O149   2.047       .  S
Fe133       O139   2.037       .  S
Fe133       O146   2.046       .  S
Fe133       O138   2.049       .  S
Fe133       O144   1.961       .  S
Fe134       O137   2.059       .  S
Fe134       O141   2.073       .  S
Fe134       O145   2.072       .  S
Fe134       O150   2.051       .  S
Fe134       O144   1.977       .  S
Fe135       O153   2.085       .  S
Fe135       O140   2.087       .  S
Fe135       O147   2.099       .  S
Fe135       O136   2.098       .  S
Fe135       O144   1.991       .  S
O136        C143   1.274       .  A
O137        C151   1.270       .  A
O138        C143   1.266       .  A
O139        C142   1.262       .  A
O140        C152   1.271       .  A
O141        C154   1.269       .  A
C142        O147   1.272       .  A
C142       C2699   1.477       .  S
C143       C2682   1.479       .  S
O145        C148   1.267       .  A
O146        C148   1.265       .  A
C148       C2710   1.476       .  S
O149        C154   1.266       .  A
O150        C152   1.267       .  A
C151        O153   1.274       .  A
C151       C2671   1.483       .  S
C152       C2864   1.478       .  S
C154       C2727   1.469       .  S
Fe155       O171   2.052       .  S
Fe155       O161   2.052       .  S
Fe155       O168   2.051       .  S
Fe155       O160   2.047       .  S
Fe155       O166   1.965       .  S
Fe156       O159   2.050       .  S
Fe156       O163   2.069       .  S
Fe156       O167   2.069       .  S
Fe156       O172   2.051       .  S
Fe156       O166   1.984       .  S
Fe157       O175   2.091       .  S
Fe157       O162   2.088       .  S
Fe157       O169   2.102       .  S
Fe157       O158   2.098       .  S
Fe157       O166   1.997       .  S
O158        C165   1.273       .  A
O159        C173   1.268       .  A
O160        C165   1.264       .  A
O161        C164   1.266       .  A
O162        C174   1.273       .  A
O163        C176   1.267       .  A
C164        O169   1.274       .  A
C164       C2643   1.482       .  S
C165       C2654   1.479       .  S
O167        C170   1.267       .  A
O168        C170   1.265       .  A
C170       C2724   1.471       .  S
O171        C176   1.266       .  A
O172        C174   1.267       .  A
C173        O175   1.273       .  A
C173       C2598   1.490       .  S
C174       C2612   1.482       .  S
C176       C2629   1.471       .  S
Fe177       O193   2.045       .  S
Fe177       O183   2.063       .  S
Fe177       O190   2.055       .  S
Fe177       O182   2.038       .  S
Fe177       O188   1.947       .  S
Fe178       O181   2.039       .  S
Fe178       O185   2.083       .  S
Fe178       O189   2.061       .  S
Fe178       O194   2.067       .  S
Fe178       O188   1.963       .  S
Fe179       O197   2.098       .  S
Fe179       O184   2.085       .  S
Fe179       O191   2.091       .  S
Fe179       O180   2.118       .  S
Fe179       O188   1.969       .  S
O180        C187   1.278       .  A
O181        C195   1.265       .  A
O182        C187   1.265       .  A
O183        C186   1.266       .  A
O184        C196   1.274       .  A
O185        C198   1.271       .  A
C186        O191   1.271       .  A
C186       C2584   1.480       .  S
C187       C2570   1.481       .  S
O189        C192   1.266       .  A
O190        C192   1.267       .  A
C192       C2626   1.464       .  S
O193        C198   1.266       .  A
O194        C196   1.271       .  A
C195        O197   1.276       .  A
C195       C3007   1.479       .  S
C196       C2556   1.493       .  S
C198       C2713   1.479       .  S
Fe199       O215   2.049       .  S
Fe199       O205   2.045       .  S
Fe199       O212   2.051       .  S
Fe199       O204   2.046       .  S
Fe199       O210   1.965       .  S
Fe200       O203   2.046       .  S
Fe200       O207   2.070       .  S
Fe200       O211   2.072       .  S
Fe200       O216   2.050       .  S
Fe200       O210   1.983       .  S
Fe201       O219   2.087       .  S
Fe201       O206   2.101       .  S
Fe201       O213   2.103       .  S
Fe201       O202   2.100       .  S
Fe201       O210   1.997       .  S
O202        C209   1.273       .  A
O203        C217   1.268       .  A
O204        C209   1.264       .  A
O205        C208   1.265       .  A
O206        C218   1.276       .  A
O207        C220   1.266       .  A
C208        O213   1.275       .  A
C208       C2640   1.479       .  S
C209       C2573   1.478       .  S
O211        C214   1.268       .  A
O212        C214   1.268       .  A
C214       C2531   1.477       .  S
O215        C220   1.265       .  A
O216        C218   1.267       .  A
C217        O219   1.272       .  A
C217       C2825   1.486       .  S
C218       C2514   1.494       .  S
C220       C2542   1.477       .  S
Fe221       O237   2.045       .  S
Fe221       O227   2.032       .  S
Fe221       O234   2.037       .  S
Fe221       O226   2.045       .  S
Fe221       O232   1.963       .  S
Fe222       O225   2.054       .  S
Fe222       O229   2.079       .  S
Fe222       O233   2.073       .  S
Fe222       O238   2.053       .  S
Fe222       O232   1.982       .  S
Fe223       O241   2.085       .  S
Fe223       O228   2.100       .  S
Fe223       O235   2.117       .  S
Fe223       O224   2.100       .  S
Fe223       O232   1.991       .  S
O224        C231   1.273       .  A
O225        C239   1.269       .  A
O226        C231   1.264       .  A
O227        C230   1.262       .  A
O228        C240   1.275       .  A
O229        C242   1.268       .  A
C230        O235   1.277       .  A
C230       C2587   1.482       .  S
C231       C2685   1.478       .  S
O233        C236   1.269       .  A
O234        C236   1.263       .  A
C236       C2500   1.467       .  S
O237        C242   1.265       .  A
O238        C240   1.268       .  A
C239        O241   1.273       .  A
C239       C2472   1.483       .  S
C240       C2486   1.493       .  S
C242       C2528   1.475       .  S
Fe243       O259   2.055       .  S
Fe243       O249   2.053       .  S
Fe243       O256   2.059       .  S
Fe243       O248   2.040       .  S
Fe243       O254   1.951       .  S
Fe244       O247   2.049       .  S
Fe244       O251   2.064       .  S
Fe244       O255   2.070       .  S
Fe244       O260   2.051       .  S
Fe244       O254   1.964       .  S
Fe245       O263   2.105       .  S
Fe245       O250   2.084       .  S
Fe245       O257   2.087       .  S
Fe245       O246   2.115       .  S
Fe245       O254   1.977       .  S
O246        C253   1.277       .  A
O247        C261   1.270       .  A
O248        C253   1.265       .  A
O249        C252   1.266       .  A
O250        C262   1.272       .  A
O251        C264   1.266       .  A
C252        O257   1.271       .  A
C252       C2696   1.475       .  S
C253       C2657   1.481       .  S
O255        C258   1.269       .  A
O256        C258   1.269       .  A
C258       C2545   1.472       .  S
O259        C264   1.266       .  A
O260        C262   1.265       .  A
C261        O263   1.278       .  A
C261       C2458   1.488       .  S
C262       C2738   1.489       .  S
C264       C2503   1.476       .  S
Fe265       O281   2.046       .  S
Fe265       O271   2.041       .  S
Fe265       O278   2.048       .  S
Fe265       O270   2.038       .  S
Fe265       O276   1.966       .  S
Fe266       O269   2.058       .  S
Fe266       O273   2.076       .  S
Fe266       O277   2.076       .  S
Fe266       O282   2.054       .  S
Fe266       O276   1.980       .  S
Fe267       O285   2.081       .  S
Fe267       O272   2.083       .  S
Fe267       O279   2.100       .  S
Fe267       O268   2.096       .  S
Fe267       O276   1.998       .  S
O268        C275   1.272       .  A
O269        C283   1.269       .  A
O270        C275   1.264       .  A
O271        C274   1.263       .  A
O272        C284   1.272       .  A
O273        C286   1.269       .  A
C274        O279   1.273       .  A
C274       C2444   1.477       .  S
C275       C2433   1.475       .  S
O277        C280   1.268       .  A
O278        C280   1.266       .  A
C280       C2405   1.481       .  S
O281        C286   1.266       .  A
O282        C284   1.269       .  A
C283        O285   1.271       .  A
C283       C2615   1.481       .  S
C284       C2388   1.484       .  S
C286       C2416   1.477       .  S
Fe287       O303   2.040       .  S
Fe287       O293   2.037       .  S
Fe287       O300   2.049       .  S
Fe287       O292   2.040       .  S
Fe287       O298   1.966       .  S
Fe288       O291   2.058       .  S
Fe288       O295   2.084       .  S
Fe288       O299   2.077       .  S
Fe288       O304   2.063       .  S
Fe288       O298   1.979       .  S
Fe289       O307   2.089       .  S
Fe289       O294   2.089       .  S
Fe289       O301   2.104       .  S
Fe289       O290   2.101       .  S
Fe289       O298   1.995       .  S
O290        C297   1.274       .  A
O291        C305   1.270       .  A
O292        C297   1.263       .  A
O293        C296   1.263       .  A
O294        C306   1.273       .  A
O295        C308   1.270       .  A
C296        O301   1.273       .  A
C296       C2363   1.477       .  S
C297       C2349   1.476       .  S
O299        C302   1.270       .  A
O300        C302   1.267       .  A
C302       C2374   1.483       .  S
O303        C308   1.264       .  A
O304        C306   1.268       .  A
C305        O307   1.274       .  A
C305       C2318   1.491       .  S
C306       C2332   1.492       .  S
C308       C2402   1.482       .  S
Fe309       O325   2.043       .  S
Fe309       O315   2.058       .  S
Fe309       O322   2.050       .  S
Fe309       O314   2.030       .  S
Fe309       O320   1.953       .  S
Fe310       O313   2.044       .  S
Fe310       O317   2.091       .  S
Fe310       O321   2.068       .  S
Fe310       O326   2.075       .  S
Fe310       O320   1.969       .  S
Fe311       O329   2.100       .  S
Fe311       O316   2.072       .  S
Fe311       O323   2.083       .  S
Fe311       O312   2.118       .  S
Fe311       O320   1.978       .  S
O312        C319   1.277       .  A
O313        C327   1.266       .  A
O314        C319   1.263       .  A
O315        C318   1.266       .  A
O316        C328   1.271       .  A
O317        C330   1.275       .  A
C318        O323   1.269       .  A
C318       C2290   1.475       .  S
C319       C2307   1.479       .  S
O321        C324   1.266       .  A
O322        C324   1.265       .  A
C324       C2419   1.473       .  S
O325        C330   1.265       .  A
O326        C328   1.274       .  A
C327        O329   1.275       .  A
C327       C2276   1.494       .  S
C328       C2668   1.480       .  S
C330       C2377   1.487       .  S
Fe331       O347   2.055       .  S
Fe331       O337   2.036       .  S
Fe331       O344   2.054       .  S
Fe331       O336   2.066       .  S
Fe331       O342   1.941       .  S
Fe332       O335   2.086       .  S
Fe332       O339   2.064       .  S
Fe332       O343   2.096       .  S
Fe332       O348   2.048       .  S
Fe332       O342   1.949       .  S
Fe333       O351   2.072       .  S
Fe333       O338   2.088       .  S
Fe333       O345   2.115       .  S
Fe333       O334   2.079       .  S
Fe333       O342   1.961       .  S
O334        C341   1.269       .  A
O335        C349   1.277       .  A
O336        C341   1.267       .  A
O337        C340   1.265       .  A
O338        C350   1.273       .  A
O339        C352   1.267       .  A
C340        O345   1.277       .  A
C340       C2360   1.478       .  S
C341       C2430   1.473       .  S
O343        C346   1.276       .  A
O344        C346   1.268       .  A
C346       C2262   1.492       .  S
O347        C352   1.268       .  A
O348        C350   1.267       .  A
C349        O351   1.273       .  A
C349       C2517   1.498       .  S
C350       C2234   1.480       .  S
C352       C2248   1.470       .  S
Fe353       O369   2.051       .  S
Fe353       O359   2.056       .  S
Fe353       O366   2.051       .  S
Fe353       O358   2.032       .  S
Fe353       O364   1.954       .  S
Fe354       O357   2.048       .  S
Fe354       O361   2.081       .  S
Fe354       O365   2.067       .  S
Fe354       O370   2.057       .  S
Fe354       O364   1.963       .  S
Fe355       O373   2.095       .  S
Fe355       O360   2.082       .  S
Fe355       O367   2.089       .  S
Fe355       O356   2.115       .  S
Fe355       O364   1.979       .  S
O356        C363   1.276       .  A
O357        C371   1.268       .  A
O358        C363   1.262       .  A
O359        C362   1.267       .  A
O360        C372   1.274       .  A
O361        C374   1.270       .  A
C362        O367   1.272       .  A
C362       C2447   1.475       .  S
C363       C2304   1.479       .  S
O365        C368   1.267       .  A
O366        C368   1.267       .  A
C368       C2223   1.474       .  S
O369        C374   1.267       .  A
O370        C372   1.270       .  A
C371        O373   1.274       .  A
C371       C2195   1.485       .  S
C372       C2206   1.492       .  S
C374       C2265   1.489       .  S
Fe375       O391   2.046       .  S
Fe375       O381   2.035       .  S
Fe375       O388   2.037       .  S
Fe375       O380   2.046       .  S
Fe375       O386   1.964       .  S
Fe376       O379   2.051       .  S
Fe376       O383   2.076       .  S
Fe376       O387   2.075       .  S
Fe376       O392   2.053       .  S
Fe376       O386   1.983       .  S
Fe377       O395   2.082       .  S
Fe377       O382   2.081       .  S
Fe377       O389   2.098       .  S
Fe377       O378   2.098       .  S
Fe377       O386   1.994       .  S
O378        C385   1.273       .  A
O379        C393   1.268       .  A
O380        C385   1.265       .  A
O381        C384   1.262       .  A
O382        C394   1.272       .  A
O383        C396   1.269       .  A
C384        O389   1.272       .  A
C384       C2293   1.475       .  S
C385       C2346   1.479       .  S
O387        C390   1.267       .  A
O388        C390   1.264       .  A
C390       C2251   1.476       .  S
O391        C396   1.267       .  A
O392        C394   1.269       .  A
C393        O395   1.272       .  A
C393       C2178   1.485       .  S
C394       C2475   1.482       .  S
C396       C2220   1.478       .  S
Fe397       O413   2.039       .  S
Fe397       O403   2.039       .  S
Fe397       O410   2.037       .  S
Fe397       O402   2.036       .  S
Fe397       O408   1.966       .  S
Fe398       O401   2.058       .  S
Fe398       O405   2.075       .  S
Fe398       O409   2.075       .  S
Fe398       O414   2.060       .  S
Fe398       O408   1.983       .  S
Fe399       O417   2.085       .  S
Fe399       O404   2.085       .  S
Fe399       O411   2.104       .  S
Fe399       O400   2.102       .  S
Fe399       O408   1.994       .  S
O400        C407   1.272       .  A
O401        C415   1.268       .  A
O402        C407   1.262       .  A
O403        C406   1.263       .  A
O404        C416   1.273       .  A
O405        C418   1.269       .  A
C406        O411   1.274       .  A
C406       C2153   1.478       .  S
C407       C2122   1.478       .  S
O409        C412   1.268       .  A
O410        C412   1.263       .  A
C412       C2136   1.470       .  S
O413        C418   1.265       .  A
O414        C416   1.271       .  A
C415        O417   1.272       .  A
C415       C2878   1.489       .  S
C416       C2279   1.490       .  S
C418       C2164   1.474       .  S
Fe419       O435   2.043       .  S
Fe419       O425   2.045       .  S
Fe419       O432   2.054       .  S
Fe419       O424   2.029       .  S
Fe419       O430   1.958       .  S
Fe420       O423   2.053       .  S
Fe420       O427   2.073       .  S
Fe420       O431   2.069       .  S
Fe420       O436   2.051       .  S
Fe420       O430   1.969       .  S
Fe421       O439   2.108       .  S
Fe421       O426   2.090       .  S
Fe421       O433   2.097       .  S
Fe421       O422   2.114       .  S
Fe421       O430   1.984       .  S
O422        C429   1.277       .  A
O423        C437   1.270       .  A
O424        C429   1.263       .  A
O425        C428   1.264       .  A
O426        C438   1.272       .  A
O427        C440   1.268       .  A
C428        O433   1.272       .  A
C428       C2080   1.476       .  S
C429       C2094   1.478       .  S
O431        C434   1.268       .  A
O432        C434   1.268       .  A
C434       C2108   1.474       .  S
O435        C440   1.264       .  A
O436        C438   1.268       .  A
C437        O439   1.278       .  A
C437       C2335   1.493       .  S
C438       C2066   1.489       .  S
C440       C2139   1.475       .  S
Fe441       O457   2.044       .  S
Fe441       O447   2.044       .  S
Fe441       O454   2.049       .  S
Fe441       O446   2.040       .  S
Fe441       O452   1.966       .  S
Fe442       O445   2.050       .  S
Fe442       O449   2.080       .  S
Fe442       O453   2.067       .  S
Fe442       O458   2.055       .  S
Fe442       O452   1.983       .  S
Fe443       O461   2.081       .  S
Fe443       O448   2.087       .  S
Fe443       O455   2.095       .  S
Fe443       O444   2.096       .  S
Fe443       O452   1.990       .  S
O444        C451   1.271       .  A
O445        C459   1.267       .  A
O446        C451   1.263       .  A
O447        C450   1.265       .  A
O448        C460   1.272       .  A
O449        C462   1.269       .  A
C450        O455   1.272       .  A
C450       C2052   1.474       .  S
C451       C2038   1.475       .  S
O453        C456   1.268       .  A
O454        C456   1.267       .  A
C456       C2167   1.473       .  S
O457        C462   1.264       .  A
O458        C460   1.269       .  A
C459        O461   1.272       .  A
C459       C2024   1.471       .  S
C460       C2937   1.487       .  S
C462       C2111   1.482       .  S
Fe463       O479   2.044       .  S
Fe463       O469   2.050       .  S
Fe463       O476   2.049       .  S
Fe463       O468   2.039       .  S
Fe463       O474   1.966       .  S
Fe464       O467   2.054       .  S
Fe464       O471   2.086       .  S
Fe464       O475   2.069       .  S
Fe464       O480   2.060       .  S
Fe464       O474   1.985       .  S
Fe465       O483   2.085       .  S
Fe465       O470   2.077       .  S
Fe465       O477   2.090       .  S
Fe465       O466   2.104       .  S
Fe465       O474   1.995       .  S
O466        C473   1.274       .  A
O467        C481   1.268       .  A
O468        C473   1.263       .  A
O469        C472   1.265       .  A
O470        C482   1.271       .  A
O471        C484   1.272       .  A
C472        O477   1.271       .  A
C472       C2083   1.475       .  S
C473       C2125   1.477       .  S
O475        C478   1.267       .  A
O476        C478   1.266       .  A
C478       C1999   1.476       .  S
O479        C484   1.266       .  A
O480        C482   1.270       .  A
C481        O483   1.272       .  A
C481       C2769   1.479       .  S
C482       C1982   1.482       .  S
C484       C2010   1.482       .  S
Fe485       O501   2.049       .  S
Fe485       O491   2.047       .  S
Fe485       O498   2.052       .  S
Fe485       O490   2.045       .  S
Fe485       O496   1.962       .  S
Fe486       O489   2.058       .  S
Fe486       O493   2.078       .  S
Fe486       O497   2.076       .  S
Fe486       O502   2.064       .  S
Fe486       O496   1.979       .  S
Fe487       O505   2.076       .  S
Fe487       O492   2.074       .  S
Fe487       O499   2.088       .  S
Fe487       O488   2.096       .  S
Fe487       O496   1.995       .  S
O488        C495   1.273       .  A
O489        C503   1.270       .  A
O490        C495   1.265       .  A
O491        C494   1.264       .  A
O492        C504   1.269       .  A
O493        C506   1.269       .  A
C494        O499   1.269       .  A
C494       C2055   1.475       .  S
C495       C2097   1.475       .  S
O497        C500   1.270       .  A
O498        C500   1.267       .  A
C500       C2013   1.479       .  S
O501        C506   1.266       .  A
O502        C504   1.270       .  A
C503        O505   1.271       .  A
C503       C2237   1.477       .  S
C504       C2811   1.483       .  S
C506       C1968   1.481       .  S
Fe507       O523   2.035       .  S
Fe507       O513   2.047       .  S
Fe507       O520   2.048       .  S
Fe507       O512   2.028       .  S
Fe507       O518   1.962       .  S
Fe508       O511   2.057       .  S
Fe508       O515   2.088       .  S
Fe508       O519   2.072       .  S
Fe508       O524   2.067       .  S
Fe508       O518   1.981       .  S
Fe509       O527   2.093       .  S
Fe509       O514   2.073       .  S
Fe509       O521   2.092       .  S
Fe509       O510   2.113       .  S
Fe509       O518   1.991       .  S
O510        C517   1.277       .  A
O511        C525   1.270       .  A
O512        C517   1.263       .  A
O513        C516   1.263       .  A
O514        C526   1.269       .  A
O515        C528   1.271       .  A
C516        O521   1.270       .  A
C516       C2150   1.477       .  S
C517       C2041   1.477       .  S
O519        C522   1.267       .  A
O520        C522   1.265       .  A
C522       C1971   1.474       .  S
O523        C528   1.265       .  A
O524        C526   1.269       .  A
C525        O527   1.276       .  A
C525       C1954   1.484       .  S
C526       C2192   1.478       .  S
C528       C1996   1.479       .  S
Fe529       O545   2.043       .  S
Fe529       O535   2.063       .  S
Fe529       O542   2.061       .  S
Fe529       O534   2.030       .  S
Fe529       O540   1.947       .  S
Fe530       O533   2.044       .  S
Fe530       O537   2.093       .  S
Fe530       O541   2.060       .  S
Fe530       O546   2.070       .  S
Fe530       O540   1.952       .  S
Fe531       O549   2.104       .  S
Fe531       O536   2.080       .  S
Fe531       O543   2.084       .  S
Fe531       O532   2.125       .  S
Fe531       O540   1.966       .  S
O532        C539   1.280       .  A
O533        C547   1.269       .  A
O534        C539   1.264       .  A
O535        C538   1.266       .  A
O536        C548   1.273       .  A
O537        C550   1.273       .  A
C538        O543   1.269       .  A
C538       C1926   1.475       .  S
C539       C1940   1.481       .  S
O541        C544   1.265       .  A
O542        C544   1.268       .  A
C544       C1898   1.469       .  S
O545        C550   1.267       .  A
O546        C548   1.272       .  A
C547        O549   1.277       .  A
C547       C1887   1.498       .  S
C548       C2993   1.492       .  S
C550       C1912   1.487       .  S
Fe551       O567   2.052       .  S
Fe551       O557   2.034       .  S
Fe551       O564   2.041       .  S
Fe551       O556   2.045       .  S
Fe551       O562   1.964       .  S
Fe552       O555   2.048       .  S
Fe552       O559   2.071       .  S
Fe552       O563   2.068       .  S
Fe552       O568   2.049       .  S
Fe552       O562   1.980       .  S
Fe553       O571   2.089       .  S
Fe553       O558   2.090       .  S
Fe553       O565   2.102       .  S
Fe553       O554   2.100       .  S
Fe553       O562   1.995       .  S
O554        C561   1.273       .  A
O555        C569   1.266       .  A
O556        C561   1.265       .  A
O557        C560   1.262       .  A
O558        C570   1.273       .  A
O559        C572   1.269       .  A
C560        O565   1.273       .  A
C560       C1929   1.475       .  S
C561       C1859   1.478       .  S
O563        C566   1.267       .  A
O564        C566   1.264       .  A
C566       C1870   1.473       .  S
O567        C572   1.268       .  A
O568        C570   1.268       .  A
C569        O571   1.273       .  A
C569       C1828   1.488       .  S
C570       C2783   1.482       .  S
C572       C1842   1.475       .  S
Fe573       O589   2.042       .  S
Fe573       O579   2.045       .  S
Fe573       O586   2.045       .  S
Fe573       O578   2.031       .  S
Fe573       O584   1.963       .  S
Fe574       O577   2.058       .  S
Fe574       O581   2.085       .  S
Fe574       O585   2.073       .  S
Fe574       O590   2.068       .  S
Fe574       O584   1.975       .  S
Fe575       O593   2.097       .  S
Fe575       O580   2.082       .  S
Fe575       O587   2.097       .  S
Fe575       O576   2.114       .  S
Fe575       O584   1.992       .  S
O576        C583   1.276       .  A
O577        C591   1.269       .  A
O578        C583   1.262       .  A
O579        C582   1.264       .  A
O580        C592   1.272       .  A
O581        C594   1.273       .  A
C582        O587   1.272       .  A
C582       C1814   1.479       .  S
C583       C1856   1.479       .  S
O585        C588   1.268       .  A
O586        C588   1.264       .  A
C588       C1915   1.475       .  S
O589        C594   1.266       .  A
O590        C592   1.272       .  A
C591        O593   1.275       .  A
C591       C1786   1.493       .  S
C592       C1772   1.489       .  S
C594       C1800   1.485       .  S
Fe595       O611   2.042       .  S
Fe595       O601   2.031       .  S
Fe595       O608   2.039       .  S
Fe595       O600   2.037       .  S
Fe595       O606   1.966       .  S
Fe596       O599   2.056       .  S
Fe596       O603   2.073       .  S
Fe596       O607   2.076       .  S
Fe596       O612   2.057       .  S
Fe596       O606   1.979       .  S
Fe597       O615   2.093       .  S
Fe597       O602   2.086       .  S
Fe597       O609   2.102       .  S
Fe597       O598   2.101       .  S
Fe597       O606   1.997       .  S
O598        C605   1.275       .  A
O599        C613   1.270       .  A
O600        C605   1.264       .  A
O601        C604   1.260       .  A
O602        C614   1.272       .  A
O603        C616   1.270       .  A
C604        O609   1.272       .  A
C604       C1758   1.475       .  S
C605       C1744   1.474       .  S
O607        C610   1.268       .  A
O608        C610   1.263       .  A
C610       C1803   1.478       .  S
O611        C616   1.264       .  A
O612        C614   1.268       .  A
C613        O615   1.275       .  A
C613       C2920   1.490       .  S
C614       C1733   1.486       .  S
C616       C1901   1.475       .  S
Fe617       O633   2.053       .  S
Fe617       O623   2.040       .  S
Fe617       O630   2.045       .  S
Fe617       O622   2.048       .  S
Fe617       O628   1.964       .  S
Fe618       O621   2.060       .  S
Fe618       O625   2.064       .  S
Fe618       O629   2.077       .  S
Fe618       O634   2.050       .  S
Fe618       O628   1.982       .  S
Fe619       O637   2.085       .  S
Fe619       O624   2.085       .  S
Fe619       O631   2.095       .  S
Fe619       O620   2.094       .  S
Fe619       O628   1.997       .  S
O620        C627   1.272       .  A
O621        C635   1.269       .  A
O622        C627   1.266       .  A
O623        C626   1.263       .  A
O624        C636   1.272       .  A
O625        C638   1.267       .  A
C626        O631   1.271       .  A
C626       C1761   1.474       .  S
C627       C1943   1.475       .  S
O629        C632   1.269       .  A
O630        C632   1.265       .  A
C632       C1845   1.478       .  S
O633        C638   1.267       .  A
O634        C636   1.267       .  A
C635        O637   1.273       .  A
C635       C1702   1.492       .  S
C636       C1691   1.485       .  S
C638       C1716   1.472       .  S
Fe639       O655   2.043       .  S
Fe639       O645   2.045       .  S
Fe639       O652   2.045       .  S
Fe639       O644   2.040       .  S
Fe639       O650   1.967       .  S
Fe640       O643   2.057       .  S
Fe640       O647   2.069       .  S
Fe640       O651   2.076       .  S
Fe640       O656   2.061       .  S
Fe640       O650   1.983       .  S
Fe641       O659   2.082       .  S
Fe641       O646   2.092       .  S
Fe641       O653   2.105       .  S
Fe641       O642   2.093       .  S
Fe641       O650   1.992       .  S
O642        C649   1.271       .  A
O643        C657   1.269       .  A
O644        C649   1.262       .  A
O645        C648   1.265       .  A
O646        C658   1.274       .  A
O647        C660   1.265       .  A
C648        O653   1.274       .  A
C648       C1817   1.482       .  S
C649       C1747   1.474       .  S
O651        C654   1.271       .  A
O652        C654   1.267       .  A
C654       C1719   1.471       .  S
O655        C660   1.263       .  A
O656        C658   1.268       .  A
C657        O659   1.271       .  A
C657       C2755   1.480       .  S
C658       C1677   1.488       .  S
C660       C1873   1.474       .  S
Fe661       O677   2.051       .  S
Fe661       O667   2.030       .  S
Fe661       O674   2.041       .  S
Fe661       O666   2.051       .  S
Fe661       O672   1.962       .  S
Fe662       O665   2.063       .  S
Fe662       O669   2.073       .  S
Fe662       O673   2.073       .  S
Fe662       O678   2.057       .  S
Fe662       O672   1.971       .  S
Fe663       O681   2.085       .  S
Fe663       O668   2.097       .  S
Fe663       O675   2.114       .  S
Fe663       O664   2.096       .  S
Fe663       O672   1.982       .  S
O664        C671   1.273       .  A
O665        C679   1.271       .  A
O666        C671   1.265       .  A
O667        C670   1.262       .  A
O668        C680   1.275       .  A
O669        C682   1.269       .  A
C670        O675   1.275       .  A
C670       C1660   1.478       .  S
C671       C1646   1.479       .  S
O673        C676   1.269       .  A
O674        C676   1.265       .  A
C676       C1632   1.478       .  S
O677        C682   1.266       .  A
O678        C680   1.269       .  A
C679        O681   1.273       .  A
C679       C1604   1.492       .  S
C680       C1789   1.494       .  S
C682       C1618   1.476       .  S
Fe683       O699   2.053       .  S
Fe683       O689   2.034       .  S
Fe683       O696   2.038       .  S
Fe683       O688   2.044       .  S
Fe683       O694   1.961       .  S
Fe684       O687   2.061       .  S
Fe684       O691   2.080       .  S
Fe684       O695   2.080       .  S
Fe684       O700   2.052       .  S
Fe684       O694   1.978       .  S
Fe685       O703   2.082       .  S
Fe685       O690   2.092       .  S
Fe685       O697   2.104       .  S
Fe685       O686   2.089       .  S
Fe685       O694   1.994       .  S
O686        C693   1.269       .  A
O687        C701   1.270       .  A
O688        C693   1.263       .  A
O689        C692   1.264       .  A
O690        C702   1.275       .  A
O691        C704   1.270       .  A
C692        O697   1.275       .  A
C692       C1576   1.474       .  S
C693       C1593   1.474       .  S
O695        C698   1.269       .  A
O696        C698   1.264       .  A
C698       C1621   1.478       .  S
O699        C704   1.267       .  A
O700        C702   1.269       .  A
C701        O703   1.271       .  A
C701       C2069   1.488       .  S
C702       C1548   1.485       .  S
C704       C1565   1.480       .  S
Fe705       O721   2.042       .  S
Fe705       O711   2.073       .  S
Fe705       O718   2.061       .  S
Fe705       O710   2.031       .  S
Fe705       O716   1.940       .  S
Fe706       O709   2.051       .  S
Fe706       O713   2.082       .  S
Fe706       O717   2.075       .  S
Fe706       O722   2.071       .  S
Fe706       O716   1.950       .  S
Fe707       O725   2.100       .  S
Fe707       O712   2.074       .  S
Fe707       O719   2.082       .  S
Fe707       O708   2.124       .  S
Fe707       O716   1.958       .  S
O708        C715   1.280       .  A
O709        C723   1.268       .  A
O710        C715   1.264       .  A
O711        C714   1.268       .  A
O712        C724   1.273       .  A
O713        C726   1.274       .  A
C714        O719   1.269       .  A
C714       C1534   1.478       .  S
C715       C1523   1.478       .  S
O717        C720   1.268       .  A
O718        C720   1.267       .  A
C720       C1562   1.478       .  S
O721        C726   1.267       .  A
O722        C724   1.273       .  A
C723        O725   1.276       .  A
C723       C1730   1.491       .  S
C724       C2027   1.479       .  S
C726       C1635   1.479       .  S
Fe727       O743   2.049       .  S
Fe727       O733   2.041       .  S
Fe727       O740   2.044       .  S
Fe727       O732   2.043       .  S
Fe727       O738   1.967       .  S
Fe728       O731   2.047       .  S
Fe728       O735   2.075       .  S
Fe728       O739   2.065       .  S
Fe728       O744   2.055       .  S
Fe728       O738   1.979       .  S
Fe729       O747   2.092       .  S
Fe729       O734   2.093       .  S
Fe729       O741   2.107       .  S
Fe729       O730   2.103       .  S
Fe729       O738   1.993       .  S
O730        C737   1.273       .  A
O731        C745   1.265       .  A
O732        C737   1.263       .  A
O733        C736   1.264       .  A
O734        C746   1.275       .  A
O735        C748   1.269       .  A
C736        O741   1.275       .  A
C736       C1537   1.479       .  S
C737       C1649   1.478       .  S
O739        C742   1.265       .  A
O740        C742   1.265       .  A
C742       C1506   1.475       .  S
O743        C748   1.266       .  A
O744        C746   1.269       .  A
C745        O747   1.273       .  A
C745       C1478   1.491       .  S
C746       C1957   1.484       .  S
C748       C1495   1.477       .  S
Fe749       O765   2.039       .  S
Fe749       O755   2.044       .  S
Fe749       O762   2.049       .  S
Fe749       O754   2.037       .  S
Fe749       O760   1.965       .  S
Fe750       O753   2.049       .  S
Fe750       O757   2.076       .  S
Fe750       O761   2.072       .  S
Fe750       O766   2.059       .  S
Fe750       O760   1.981       .  S
Fe751       O769   2.084       .  S
Fe751       O756   2.078       .  S
Fe751       O763   2.097       .  S
Fe751       O752   2.098       .  S
Fe751       O760   1.995       .  S
O752        C759   1.273       .  A
O753        C767   1.268       .  A
O754        C759   1.263       .  A
O755        C758   1.264       .  A
O756        C768   1.270       .  A
O757        C770   1.269       .  A
C758        O763   1.271       .  A
C758       C1663   1.478       .  S
C759       C1590   1.473       .  S
O761        C764   1.268       .  A
O762        C764   1.265       .  A
C764       C1464   1.475       .  S
O765        C770   1.264       .  A
O766        C768   1.270       .  A
C767        O769   1.273       .  A
C767       C1985   1.480       .  S
C768       C1831   1.493       .  S
C770       C1509   1.475       .  S
Fe771       O787   2.049       .  S
Fe771       O777   2.055       .  S
Fe771       O784   2.049       .  S
Fe771       O776   2.038       .  S
Fe771       O782   1.957       .  S
Fe772       O775   2.050       .  S
Fe772       O779   2.076       .  S
Fe772       O783   2.067       .  S
Fe772       O788   2.058       .  S
Fe772       O782   1.975       .  S
Fe773       O791   2.089       .  S
Fe773       O778   2.075       .  S
Fe773       O785   2.082       .  S
Fe773       O774   2.108       .  S
Fe773       O782   1.987       .  S
O774        C781   1.276       .  A
O775        C789   1.268       .  A
O776        C781   1.264       .  A
O777        C780   1.265       .  A
O778        C790   1.271       .  A
O779        C792   1.270       .  A
C780        O785   1.269       .  A
C780       C1579   1.473       .  S
C781       C1520   1.478       .  S
O783        C786   1.266       .  A
O784        C786   1.266       .  A
C786       C1492   1.472       .  S
O787        C792   1.268       .  A
O788        C790   1.269       .  A
C789        O791   1.273       .  A
C789       C1688   1.488       .  S
C790       C1450   1.477       .  S
C792       C1467   1.479       .  S
Fe793       O809   2.049       .  S
Fe793       O799   2.048       .  S
Fe793       O806   2.047       .  S
Fe793       O798   2.032       .  S
Fe793       O804   1.957       .  S
Fe794       O797   2.053       .  S
Fe794       O801   2.092       .  S
Fe794       O805   2.067       .  S
Fe794       O810   2.065       .  S
Fe794       O804   1.965       .  S
Fe795       O813   2.100       .  S
Fe795       O800   2.069       .  S
Fe795       O807   2.081       .  S
Fe795       O796   2.120       .  S
Fe795       O804   1.979       .  S
O796        C803   1.279       .  A
O797        C811   1.268       .  A
O798        C803   1.264       .  A
O799        C802   1.263       .  A
O800        C812   1.269       .  A
O801        C814   1.274       .  A
C802        O807   1.268       .  A
C802       C1408   1.471       .  S
C803       C1394   1.479       .  S
O805        C808   1.266       .  A
O806        C808   1.264       .  A
C808       C1439   1.475       .  S
O809        C814   1.269       .  A
O810        C812   1.271       .  A
C811        O813   1.276       .  A
C811       C2489   1.496       .  S
C812       C1380   1.483       .  S
C814       C1425   1.487       .  S
Fe815       O831   2.042       .  S
Fe815       O821   2.041       .  S
Fe815       O828   2.045       .  S
Fe815       O820   2.039       .  S
Fe815       O826   1.961       .  S
Fe816       O819   2.045       .  S
Fe816       O823   2.072       .  S
Fe816       O827   2.071       .  S
Fe816       O832   2.053       .  S
Fe816       O826   1.974       .  S
Fe817       O835   2.085       .  S
Fe817       O822   2.098       .  S
Fe817       O829   2.110       .  S
Fe817       O818   2.098       .  S
Fe817       O826   1.986       .  S
O818        C825   1.272       .  A
O819        C833   1.266       .  A
O820        C825   1.262       .  A
O821        C824   1.265       .  A
O822        C834   1.277       .  A
O823        C836   1.268       .  A
C824        O829   1.276       .  A
C824       C1352   1.481       .  S
C825       C1338   1.477       .  S
O827        C830   1.267       .  A
O828        C830   1.265       .  A
C830       C1366   1.476       .  S
O831        C836   1.266       .  A
O832        C834   1.271       .  A
C833        O835   1.271       .  A
C833       C1327   1.484       .  S
C834       C1705   1.496       .  S
C836       C1436   1.477       .  S
Fe837       O853   2.054       .  S
Fe837       O843   2.041       .  S
Fe837       O850   2.054       .  S
Fe837       O842   2.055       .  S
Fe837       O848   1.960       .  S
Fe838       O841   2.079       .  S
Fe838       O845   2.068       .  S
Fe838       O849   2.091       .  S
Fe838       O854   2.051       .  S
Fe838       O848   1.971       .  S
Fe839       O857   2.082       .  S
Fe839       O844   2.097       .  S
Fe839       O851   2.109       .  S
Fe839       O840   2.094       .  S
Fe839       O848   1.982       .  S
O840        C847   1.272       .  A
O841        C855   1.273       .  A
O842        C847   1.266       .  A
O843        C846   1.265       .  A
O844        C856   1.275       .  A
O845        C858   1.268       .  A
C846        O851   1.275       .  A
C846       C1313   1.479       .  S
C847       C1296   1.478       .  S
O849        C852   1.273       .  A
O850        C852   1.266       .  A
C852       C1422   1.489       .  S
O853        C858   1.266       .  A
O854        C856   1.269       .  A
C855        O857   1.272       .  A
C855       C1674   1.489       .  S
C856       C2461   1.488       .  S
C858       C1369   1.470       .  S
Fe859       O875   2.049       .  S
Fe859       O865   2.053       .  S
Fe859       O872   2.052       .  S
Fe859       O864   2.034       .  S
Fe859       O870   1.958       .  S
Fe860       O863   2.051       .  S
Fe860       O867   2.080       .  S
Fe860       O871   2.069       .  S
Fe860       O876   2.068       .  S
Fe860       O870   1.964       .  S
Fe861       O879   2.101       .  S
Fe861       O866   2.075       .  S
Fe861       O873   2.082       .  S
Fe861       O862   2.119       .  S
Fe861       O870   1.979       .  S
O862        C869   1.278       .  A
O863        C877   1.269       .  A
O864        C869   1.265       .  A
O865        C868   1.264       .  A
O866        C878   1.271       .  A
O867        C880   1.272       .  A
C868        O873   1.269       .  A
C868       C1411   1.472       .  S
C869       C1299   1.483       .  S
O871        C874   1.267       .  A
O872        C874   1.265       .  A
C874       C1268   1.469       .  S
O875        C880   1.268       .  A
O876        C878   1.273       .  A
C877        O879   1.275       .  A
C877       C1775   1.497       .  S
C878       C1257   1.494       .  S
C880       C1285   1.482       .  S
Fe881       O897   2.054       .  S
Fe881       O887   2.047       .  S
Fe881       O894   2.052       .  S
Fe881       O886   2.043       .  S
Fe881       O892   1.965       .  S
Fe882       O885   2.056       .  S
Fe882       O889   2.077       .  S
Fe882       O893   2.070       .  S
Fe882       O898   2.056       .  S
Fe882       O892   1.978       .  S
Fe883       O901   2.089       .  S
Fe883       O888   2.081       .  S
Fe883       O895   2.095       .  S
Fe883       O884   2.098       .  S
Fe883       O892   1.997       .  S
O884        C891   1.273       .  A
O885        C899   1.271       .  A
O886        C891   1.264       .  A
O887        C890   1.265       .  A
O888        C900   1.271       .  A
O889        C902   1.269       .  A
C890        O895   1.272       .  A
C890       C1310   1.476       .  S
C891       C1341   1.476       .  S
O893        C896   1.268       .  A
O894        C896   1.267       .  A
C896       C1243   1.479       .  S
O897        C902   1.266       .  A
O898        C900   1.268       .  A
C899        O901   1.274       .  A
C899       C1226   1.490       .  S
C900       C2601   1.489       .  S
C902       C1271   1.480       .  S
Fe903       O919   2.045       .  S
Fe903       O909   2.032       .  S
Fe903       O916   2.036       .  S
Fe903       O908   2.039       .  S
Fe903       O914   1.968       .  S
Fe904       O907   2.063       .  S
Fe904       O911   2.078       .  S
Fe904       O915   2.082       .  S
Fe904       O920   2.048       .  S
Fe904       O914   1.981       .  S
Fe905       O923   2.083       .  S
Fe905       O910   2.096       .  S
Fe905       O917   2.112       .  S
Fe905       O906   2.098       .  S
Fe905       O914   1.992       .  S
O906        C913   1.271       .  A
O907        C921   1.270       .  A
O908        C913   1.262       .  A
O909        C912   1.263       .  A
O910        C922   1.275       .  A
O911        C924   1.270       .  A
C912        O917   1.276       .  A
C912       C1355   1.478       .  S
C913       C1397   1.478       .  S
O915        C918   1.270       .  A
O916        C918   1.264       .  A
C918       C1282   1.482       .  S
O919        C924   1.265       .  A
O920        C922   1.268       .  A
C921        O923   1.272       .  A
C921       C2559   1.485       .  S
C922       C1884   1.494       .  S
C924       C1240   1.481       .  S
Fe925       O941   2.049       .  S
Fe925       O931   2.054       .  S
Fe925       O938   2.055       .  S
Fe925       O930   2.037       .  S
Fe925       O936   1.957       .  S
Fe926       O929   2.046       .  S
Fe926       O933   2.081       .  S
Fe926       O937   2.064       .  S
Fe926       O942   2.060       .  S
Fe926       O936   1.969       .  S
Fe927       O945   2.092       .  S
Fe927       O932   2.085       .  S
Fe927       O939   2.091       .  S
Fe927       O928   2.105       .  S
Fe927       O936   1.981       .  S
O928        C935   1.275       .  A
O929        C943   1.270       .  A
O930        C935   1.264       .  A
O931        C934   1.265       .  A
O932        C944   1.272       .  A
O933        C946   1.270       .  A
C934        O939   1.271       .  A
C934       C1198   1.477       .  S
C935       C1173   1.474       .  S
O937        C940   1.267       .  A
O938        C940   1.266       .  A
C940       C1184   1.467       .  S
O941        C946   1.265       .  A
O942        C944   1.270       .  A
C943        O945   1.275       .  A
C943       C2209   1.481       .  S
C944       C1481   1.492       .  S
C946       C1215   1.481       .  S
Fe947       O963   2.054       .  S
Fe947       O953   2.039       .  S
Fe947       O960   2.050       .  S
Fe947       O952   2.055       .  S
Fe947       O958   1.964       .  S
Fe948       O951   2.051       .  S
Fe948       O955   2.072       .  S
Fe948       O959   2.071       .  S
Fe948       O964   2.052       .  S
Fe948       O958   1.975       .  S
Fe949       O967   2.093       .  S
Fe949       O954   2.096       .  S
Fe949       O961   2.110       .  S
Fe949       O950   2.100       .  S
Fe949       O958   1.988       .  S
O950        C957   1.272       .  A
O951        C965   1.267       .  A
O952        C957   1.265       .  A
O953        C956   1.265       .  A
O954        C966   1.275       .  A
O955        C968   1.267       .  A
C956        O961   1.276       .  A
C956       C1201   1.479       .  S
C957       C1142   1.484       .  S
O959        C962   1.269       .  A
O960        C962   1.266       .  A
C962       C1128   1.477       .  S
O963        C968   1.267       .  A
O964        C966   1.269       .  A
C965        O967   1.274       .  A
C965       C1254   1.491       .  S
C966       C1607   1.486       .  S
C968       C1156   1.479       .  S
Fe969       O985   2.045       .  S
Fe969       O975   2.036       .  S
Fe969       O982   2.035       .  S
Fe969       O974   2.042       .  S
Fe969       O980   1.963       .  S
Fe970       O973   2.060       .  S
Fe970       O977   2.078       .  S
Fe970       O981   2.086       .  S
Fe970       O986   2.052       .  S
Fe970       O980   1.983       .  S
Fe971       O989   2.082       .  S
Fe971       O976   2.084       .  S
Fe971       O983   2.095       .  S
Fe971       O972   2.095       .  S
Fe971       O980   1.998       .  S
O972        C979   1.272       .  A
O973        C987   1.271       .  A
O974        C979   1.264       .  A
O975        C978   1.262       .  A
O976        C988   1.272       .  A
O977        C990   1.269       .  A
C978        O983   1.272       .  A
C978       C1114   1.474       .  S
C979       C1170   1.475       .  S
O981        C984   1.270       .  A
O982        C984   1.264       .  A
C984       C1159   1.480       .  S
O985        C990   1.266       .  A
O986        C988   1.268       .  A
C987        O989   1.272       .  A
C987       C2391   1.484       .  S
C988       C1229   1.484       .  S
C990       C1100   1.478       .  S
Fe991      O1007   2.039       .  S
Fe991       O997   2.046       .  S
Fe991      O1004   2.048       .  S
Fe991       O996   2.038       .  S
Fe991      O1002   1.963       .  S
Fe992       O995   2.060       .  S
Fe992       O999   2.070       .  S
Fe992      O1003   2.079       .  S
Fe992      O1008   2.052       .  S
Fe992      O1002   1.981       .  S
Fe993      O1011   2.079       .  S
Fe993       O998   2.088       .  S
Fe993      O1005   2.098       .  S
Fe993       O994   2.090       .  S
Fe993      O1002   1.997       .  S
O994       C1001   1.270       .  A
O995       C1009   1.270       .  A
O996       C1001   1.262       .  A
O997       C1000   1.266       .  A
O998       C1010   1.273       .  A
O999       C1012   1.266       .  A
C1000      O1005   1.274       .  A
C1000      C1089   1.478       .  S
C1001      C1072   1.471       .  S
O1003      C1006   1.270       .  A
O1004      C1006   1.267       .  A
C1006      C1103   1.479       .  S
O1007      C1012   1.263       .  A
O1008      C1010   1.269       .  A
C1009      O1011   1.270       .  A
C1009      C1551   1.486       .  S
C1010      C2321   1.488       .  S
C1012      C1131   1.469       .  S
Fe1013     O1029   2.045       .  S
Fe1013     O1019   2.042       .  S
Fe1013     O1026   2.049       .  S
Fe1013     O1018   2.029       .  S
Fe1013     O1024   1.960       .  S
Fe1014     O1017   2.050       .  S
Fe1014     O1021   2.073       .  S
Fe1014     O1025   2.070       .  S
Fe1014     O1030   2.053       .  S
Fe1014     O1024   1.972       .  S
Fe1015     O1033   2.087       .  S
Fe1015     O1020   2.080       .  S
Fe1015     O1027   2.089       .  S
Fe1015     O1016   2.099       .  S
Fe1015     O1024   1.988       .  S
O1016      C1023   1.273       .  A
O1017      C1031   1.270       .  A
O1018      C1023   1.263       .  A
O1019      C1022   1.264       .  A
O1020      C1032   1.271       .  A
O1021      C1034   1.268       .  A
C1022      O1027   1.271       .  A
C1022      C1117   1.472       .  S
C1023      C1075   1.471       .  S
O1025      C1028   1.268       .  A
O1026      C1028   1.266       .  A
C1028      C1058   1.472       .  S
O1029      C1034   1.263       .  A
O1030      C1032   1.268       .  A
C1031      O1033   1.273       .  A
C1031      C1453   1.486       .  S
C1032      C1324   1.486       .  S
C1034      C1187   1.475       .  S
Fe1035     O1051   2.055       .  S
Fe1035     O1041   2.034       .  S
Fe1035     O1048   2.044       .  S
Fe1035     O1040   2.052       .  S
Fe1035     O1046   1.964       .  S
Fe1036     O1039   2.042       .  S
Fe1036     O1043   2.061       .  S
Fe1036     O1047   2.070       .  S
Fe1036     O1052   2.043       .  S
Fe1036     O1046   1.979       .  S
Fe1037     O1055   2.089       .  S
Fe1037     O1042   2.092       .  S
Fe1037     O1049   2.101       .  S
Fe1037     O1038   2.104       .  S
Fe1037     O1046   1.996       .  S
O1038      C1045   1.274       .  A
O1039      C1053   1.266       .  A
O1040      C1045   1.265       .  A
O1041      C1044   1.263       .  A
O1042      C1054   1.274       .  A
O1043      C1056   1.265       .  A
C1044      O1049   1.274       .  A
C1044      C1086   1.472       .  S
C1045      C1145   1.483       .  S
O1047      C1050   1.268       .  A
O1048      C1050   1.265       .  A
C1050      C1212   1.472       .  S
O1051      C1056   1.266       .  A
O1052      C1054   1.267       .  A
C1053      O1055   1.273       .  A
C1053      C1383   1.483       .  S
C1054      C2181   1.487       .  S
C1056      C1061   1.473       .  S
C1057      C1058   1.403       .  A
C1057      C1062   1.395       .  A
C1057      H1064   1.085       .  S
C1058      C1059   1.410       .  A
C1059      C1060   1.407       .  A
C1059      N1066   1.437       .  S
C1060      C1061   1.405       .  A
C1060      H1065   1.084       .  S
C1061      C1062   1.413       .  A
C1062      N1063   1.434       .  S
N1063      H1067   1.043       .  S
N1063      H1068   1.046       .  S
N1066      H1069   1.045       .  S
N1066      H1070   1.046       .  S
C1071      C1072   1.406       .  A
C1071      C1076   1.410       .  A
C1071      H1078   1.084       .  S
C1072      C1073   1.404       .  A
C1073      C1074   1.401       .  A
C1073      N1080   1.431       .  S
C1074      C1075   1.404       .  A
C1074      H1079   1.085       .  S
C1075      C1076   1.408       .  A
C1076      N1077   1.437       .  S
N1077      H1081   1.046       .  S
N1077      H1082   1.045       .  S
N1080      H1083   1.046       .  S
N1080      H1084   1.045       .  S
C1085      C1086   1.406       .  A
C1085      C1090   1.411       .  A
C1085      H1092   1.084       .  S
C1086      C1087   1.406       .  A
C1087      C1088   1.405       .  A
C1087      N1094   1.438       .  S
C1088      C1089   1.405       .  A
C1088      H1093   1.084       .  S
C1089      C1090   1.409       .  A
C1090      N1091   1.436       .  S
N1091      H1095   1.046       .  S
N1091      H1096   1.044       .  S
N1094      H1097   1.045       .  S
N1094      H1098   1.046       .  S
C1099      C1100   1.404       .  A
C1099      C1104   1.410       .  A
C1099      H1106   1.084       .  S
C1100      C1101   1.410       .  A
C1101      C1102   1.400       .  A
C1101      N1108   1.438       .  S
C1102      C1103   1.403       .  A
C1102      H1107   1.084       .  S
C1103      C1104   1.413       .  A
C1104      N1105   1.437       .  S
N1105      H1109   1.046       .  S
N1105      H1110   1.044       .  S
N1108      H1111   1.045       .  S
N1108      H1112   1.046       .  S
C1113      C1114   1.406       .  A
C1113      C1118   1.401       .  A
C1113      H1120   1.084       .  S
C1114      C1115   1.415       .  A
C1115      C1116   1.403       .  A
C1115      N1122   1.438       .  S
C1116      C1117   1.403       .  A
C1116      H1121   1.084       .  S
C1117      C1118   1.409       .  A
C1118      N1119   1.432       .  S
N1119      H1123   1.045       .  S
N1119      H1124   1.045       .  S
N1122      H1125   1.044       .  S
N1122      H1126   1.045       .  S
C1127      C1128   1.405       .  A
C1127      C1132   1.405       .  A
C1127      H1134   1.084       .  S
C1128      C1129   1.415       .  A
C1129      C1130   1.393       .  A
C1129      N1136   1.430       .  S
C1130      C1131   1.400       .  A
C1130      H1135   1.085       .  S
C1131      C1132   1.409       .  A
C1132      N1133   1.436       .  S
N1133      H1137   1.046       .  S
N1133      H1138   1.045       .  S
N1136      H1139   1.044       .  S
N1136      H1140   1.044       .  S
C1141      C1142   1.403       .  A
C1141      C1146   1.409       .  A
C1141      H1148   1.084       .  S
C1142      C1143   1.418       .  A
C1143      C1144   1.409       .  A
C1143      N1150   1.436       .  S
C1144      C1145   1.402       .  A
C1144      H1149   1.084       .  S
C1145      C1146   1.409       .  A
C1146      N1147   1.431       .  S
N1147      H1151   1.045       .  S
N1147      H1152   1.043       .  S
N1150      H1153   1.044       .  S
N1150      H1154   1.045       .  S
C1155      C1156   1.407       .  A
C1155      C1160   1.414       .  A
C1155      H1162   1.083       .  S
C1156      C1157   1.407       .  A
C1157      C1158   1.394       .  A
C1157      N1164   1.433       .  S
C1158      C1159   1.403       .  A
C1158      H1163   1.083       .  S
C1159      C1160   1.413       .  A
C1160      N1161   1.437       .  S
N1161      H1165   1.046       .  S
N1161      H1166   1.046       .  S
N1164      H1167   1.046       .  S
N1164      H1168   1.046       .  S
C1169      C1170   1.400       .  A
C1169      C1174   1.406       .  A
C1169      H1176   1.084       .  S
C1170      C1171   1.411       .  A
C1171      C1172   1.406       .  A
C1171      N1178   1.438       .  S
C1172      C1173   1.401       .  A
C1172      H1177   1.084       .  S
C1173      C1174   1.418       .  A
C1174      N1175   1.437       .  S
N1175      H1179   1.045       .  S
N1175      H1180   1.045       .  S
N1178      H1181   1.045       .  S
N1178      H1182   1.046       .  S
C1183      C1184   1.400       .  A
C1183      C1188   1.396       .  A
C1183      H1190   1.083       .  S
C1184      C1185   1.410       .  A
C1185      C1186   1.398       .  A
C1185      N1192   1.432       .  S
C1186      C1187   1.404       .  A
C1186      H1191   1.084       .  S
C1187      C1188   1.416       .  A
C1188      N1189   1.433       .  S
N1189      H1193   1.044       .  S
N1189      H1194   1.045       .  S
N1192      H1195   1.045       .  S
N1192      H1196   1.045       .  S
C1197      C1198   1.400       .  A
C1197      C1202   1.404       .  A
C1197      H1204   1.084       .  S
C1198      C1199   1.413       .  A
C1199      C1200   1.405       .  A
C1199      N1206   1.431       .  S
C1200      C1201   1.402       .  A
C1200      H1205   1.084       .  S
C1201      C1202   1.418       .  A
C1202      N1203   1.438       .  S
N1203      H1207   1.046       .  S
N1203      H1208   1.045       .  S
N1206      H1209   1.044       .  S
N1206      H1210   1.044       .  S
C1211      C1212   1.399       .  A
C1211      C1216   1.392       .  A
C1211      H1218   1.080       .  S
C1212      C1213   1.410       .  A
C1213      C1214   1.408       .  A
C1213      N1220   1.438       .  S
C1214      C1215   1.407       .  A
C1214      H1219   1.082       .  S
C1215      C1216   1.415       .  A
C1216      N1217   1.431       .  S
N1217      H1221   1.043       .  S
N1217      H1222   1.045       .  S
N1220      H1223   1.045       .  S
N1220      H1224   1.046       .  S
C1225      C1226   1.405       .  A
C1225      C1230   1.401   1_545  A
C1225      H1232   1.084       .  S
C1226      C1227   1.416       .  A
C1227      C1228   1.414   1_545  A
C1227      N1234   1.437       .  S
C1228      C1229   1.405       .  A
C1228      H1233   1.083       .  S
C1229      C1230   1.412       .  A
C1230      N1231   1.439       .  S
N1231      H1235   1.046       .  S
N1231      H1236   1.046       .  S
N1234      H1237   1.046       .  S
N1234      H1238   1.046       .  S
C1239      C1240   1.406       .  A
C1239      C1244   1.411       .  A
C1239      H1246   1.084       .  S
C1240      C1241   1.410       .  A
C1241      C1242   1.397       .  A
C1241      N1248   1.433       .  S
C1242      C1243   1.402       .  A
C1242      H1247   1.084       .  S
C1243      C1244   1.414       .  A
C1244      N1245   1.438       .  S
N1245      H1249   1.046       .  S
N1245      H1250   1.046       .  S
N1248      H1251   1.046       .  S
N1248      H1252   1.046       .  S
C1253      C1254   1.407       .  A
C1253      C1258   1.410   1_565  A
C1253      H1260   1.084       .  S
C1254      C1255   1.414       .  A
C1255      C1256   1.397   1_565  A
C1255      N1262   1.433       .  S
C1256      C1257   1.403       .  A
C1256      H1261   1.084       .  S
C1257      C1258   1.421       .  A
C1258      N1259   1.432       .  S
N1259      H1263   1.045       .  S
N1259      H1264   1.046       .  S
N1262      H1265   1.046       .  S
N1262      H1266   1.046       .  S
C1267      C1268   1.398       .  A
C1267      C1272   1.394       .  A
C1267      H1274   1.082       .  S
C1268      C1269   1.408       .  A
C1269      C1270   1.409       .  A
C1269      N1276   1.437       .  S
C1270      C1271   1.407       .  A
C1270      H1275   1.084       .  S
C1271      C1272   1.414       .  A
C1272      N1273   1.430       .  S
N1273      H1277   1.044       .  S
N1273      H1278   1.044       .  S
N1276      H1279   1.045       .  S
N1276      H1280   1.046       .  S
C1281      C1282   1.406       .  A
C1281      C1286   1.398       .  A
C1281      H1288   1.084       .  S
C1282      C1283   1.412       .  A
C1283      C1284   1.408       .  A
C1283      N1290   1.437       .  S
C1284      C1285   1.407       .  A
C1284      H1289   1.083       .  S
C1285      C1286   1.410       .  A
C1286      N1287   1.433       .  S
N1287      H1291   1.045       .  S
N1287      H1292   1.046       .  S
N1290      H1293   1.046       .  S
N1290      H1294   1.046       .  S
C1295      C1296   1.400       .  A
C1295      C1300   1.402       .  A
C1295      H1302   1.084       .  S
C1296      C1297   1.409       .  A
C1297      C1298   1.412       .  A
C1297      N1304   1.431       .  S
C1298      C1299   1.404       .  A
C1298      H1303   1.084       .  S
C1299      C1300   1.418       .  A
C1300      N1301   1.438       .  S
N1301      H1305   1.045       .  S
N1301      H1306   1.046       .  S
N1304      H1307   1.045       .  S
N1304      H1308   1.043       .  S
C1309      C1310   1.400       .  A
C1309      C1314   1.404       .  A
C1309      H1316   1.084       .  S
C1310      C1311   1.411       .  A
C1311      C1312   1.411       .  A
C1311      N1318   1.437       .  S
C1312      C1313   1.403       .  A
C1312      H1317   1.084       .  S
C1313      C1314   1.416       .  A
C1314      N1315   1.436       .  S
N1315      H1319   1.045       .  S
N1315      H1320   1.044       .  S
N1318      H1321   1.044       .  S
N1318      H1322   1.046       .  S
C1323      C1324   1.408       .  A
C1323      C1328   1.414       .  A
C1323      H1330   1.083       .  S
C1324      C1325   1.414       .  A
C1325      C1326   1.398       .  A
C1325      N1332   1.440       .  S
C1326      C1327   1.403       .  A
C1326      H1331   1.084       .  S
C1327      C1328   1.413       .  A
C1328      N1329   1.437       .  S
N1329      H1333   1.046       .  S
N1329      H1334   1.046       .  S
N1332      H1335   1.046       .  S
N1332      H1336   1.046       .  S
C1337      C1338   1.402       .  A
C1337      C1342   1.406       .  A
C1337      H1344   1.084       .  S
C1338      C1339   1.420       .  A
C1339      C1340   1.406       .  A
C1339      N1346   1.439       .  S
C1340      C1341   1.400       .  A
C1340      H1345   1.084       .  S
C1341      C1342   1.409       .  A
C1342      N1343   1.433       .  S
N1343      H1347   1.045       .  S
N1343      H1348   1.045       .  S
N1346      H1349   1.044       .  S
N1346      H1350   1.046       .  S
C1351      C1352   1.401       .  A
C1351      C1356   1.411       .  A
C1351      H1358   1.084       .  S
C1352      C1353   1.415       .  A
C1353      C1354   1.410       .  A
C1353      N1360   1.439       .  S
C1354      C1355   1.401       .  A
C1354      H1359   1.084       .  S
C1355      C1356   1.415       .  A
C1356      N1357   1.439       .  S
N1357      H1361   1.046       .  S
N1357      H1362   1.045       .  S
N1360      H1363   1.045       .  S
N1360      H1364   1.046       .  S
C1365      C1366   1.403       .  A
C1365      C1370   1.394       .  A
C1365      H1372   1.084       .  S
C1366      C1367   1.417       .  A
C1367      C1368   1.400       .  A
C1367      N1374   1.432       .  S
C1368      C1369   1.401       .  A
C1368      H1373   1.084       .  S
C1369      C1370   1.412       .  A
C1370      N1371   1.431       .  S
N1371      H1375   1.044       .  S
N1371      H1376   1.044       .  S
N1374      H1377   1.045       .  S
N1374      H1378   1.045       .  S
C1379      C1380   1.402       .  A
C1379      C1384   1.397       .  A
C1379      H1386   1.084       .  S
C1380      C1381   1.418       .  A
C1381      C1382   1.407       .  A
C1381      N1388   1.432       .  S
C1382      C1383   1.405       .  A
C1382      H1387   1.084       .  S
C1383      C1384   1.412       .  A
C1384      N1385   1.434       .  S
N1385      H1389   1.046       .  S
N1385      H1390   1.046       .  S
N1388      H1391   1.046       .  S
N1388      H1392   1.045       .  S
C1393      C1394   1.402       .  A
C1393      C1398   1.404       .  A
C1393      H1400   1.084       .  S
C1394      C1395   1.419       .  A
C1395      C1396   1.406       .  A
C1395      N1402   1.438       .  S
C1396      C1397   1.400       .  A
C1396      H1401   1.084       .  S
C1397      C1398   1.416       .  A
C1398      N1399   1.433       .  S
N1399      H1403   1.045       .  S
N1399      H1404   1.046       .  S
N1402      H1405   1.045       .  S
N1402      H1406   1.045       .  S
C1407      C1408   1.405       .  A
C1407      C1412   1.400       .  A
C1407      H1414   1.085       .  S
C1408      C1409   1.414       .  A
C1409      C1410   1.404       .  A
C1409      N1416   1.438       .  S
C1410      C1411   1.405       .  A
C1410      H1415   1.084       .  S
C1411      C1412   1.409       .  A
C1412      N1413   1.433       .  S
N1413      H1417   1.045       .  S
N1413      H1418   1.045       .  S
N1416      H1419   1.044       .  S
N1416      H1420   1.045       .  S
C1421      C1422   1.407       .  A
C1421      C1426   1.410       .  A
C1421      H1428   1.084       .  S
C1422      C1423   1.418       .  A
C1423      C1424   1.397       .  A
C1423      N1430   1.432       .  S
C1424      C1425   1.404       .  A
C1424      H1429   1.085       .  S
C1425      C1426   1.415       .  A
C1426      N1427   1.437       .  S
N1427      H1431   1.046       .  S
N1427      H1432   1.046       .  S
N1430      H1433   1.043       .  S
N1430      H1434   1.043       .  S
C1435      C1436   1.404       .  A
C1435      C1440   1.397       .  A
C1435      H1442   1.084       .  S
C1436      C1437   1.415       .  A
C1437      C1438   1.403       .  A
C1437      N1444   1.432       .  S
C1438      C1439   1.404       .  A
C1438      H1443   1.084       .  S
C1439      C1440   1.411       .  A
C1440      N1441   1.439       .  S
N1441      H1445   1.046       .  S
N1441      H1446   1.044       .  S
N1444      H1447   1.045       .  S
N1444      H1448   1.044       .  S
C1449      C1450   1.403       .  A
C1449      C1454   1.413       .  A
C1449      H1456   1.084       .  S
C1450      C1451   1.407       .  A
C1451      C1452   1.397       .  A
C1451      N1458   1.434       .  S
C1452      C1453   1.405       .  A
C1452      H1457   1.084       .  S
C1453      C1454   1.418       .  A
C1454      N1455   1.437       .  S
N1455      H1459   1.046       .  S
N1455      H1460   1.045       .  S
N1458      H1461   1.046       .  S
N1458      H1462   1.046       .  S
C1463      C1464   1.404       .  A
C1463      C1468   1.408       .  A
C1463      H1470   1.084       .  S
C1464      C1465   1.413       .  A
C1465      C1466   1.394       .  A
C1465      N1472   1.433       .  S
C1466      C1467   1.403       .  A
C1466      H1471   1.082       .  S
C1467      C1468   1.414       .  A
C1468      N1469   1.438       .  S
N1469      H1473   1.046       .  S
N1469      H1474   1.045       .  S
N1472      H1475   1.045       .  S
N1472      H1476   1.043       .  S
C1477      C1478   1.408       .  A
C1477      C1482   1.416       .  A
C1477      H1484   1.083       .  S
C1478      C1479   1.419       .  A
C1479      C1480   1.393       .  A
C1479      N1486   1.434       .  S
C1480      C1481   1.404       .  A
C1480      H1485   1.084       .  S
C1481      C1482   1.416       .  A
C1482      N1483   1.437       .  S
N1483      H1487   1.046       .  S
N1483      H1488   1.045       .  S
N1486      H1489   1.046       .  S
N1486      H1490   1.044       .  S
C1491      C1492   1.400       .  A
C1491      C1496   1.392       .  A
C1491      H1498   1.085       .  S
C1492      C1493   1.411       .  A
C1493      C1494   1.410       .  A
C1493      N1500   1.437       .  S
C1494      C1495   1.405       .  A
C1494      H1499   1.084       .  S
C1495      C1496   1.414       .  A
C1496      N1497   1.431       .  S
N1497      H1501   1.043       .  S
N1497      H1502   1.044       .  S
N1500      H1503   1.045       .  S
N1500      H1504   1.046       .  S
C1505      C1506   1.401       .  A
C1505      C1510   1.395       .  A
C1505      H1512   1.084       .  S
C1506      C1507   1.417       .  A
C1507      C1508   1.401       .  A
C1507      N1514   1.432       .  S
C1508      C1509   1.403       .  A
C1508      H1513   1.084       .  S
C1509      C1510   1.410       .  A
C1510      N1511   1.432       .  S
N1511      H1515   1.046       .  S
N1511      H1516   1.046       .  S
N1514      H1517   1.046       .  S
N1514      H1518   1.045       .  S
C1519      C1520   1.406       .  A
C1519      C1524   1.408       .  A
C1519      H1526   1.084       .  S
C1520      C1521   1.409       .  A
C1521      C1522   1.409       .  A
C1521      N1528   1.438       .  S
C1522      C1523   1.407       .  A
C1522      H1527   1.084       .  S
C1523      C1524   1.408       .  A
C1524      N1525   1.437       .  S
N1525      H1529   1.046       .  S
N1525      H1530   1.045       .  S
N1528      H1531   1.046       .  S
N1528      H1532   1.046       .  S
C1533      C1534   1.406       .  A
C1533      C1538   1.412       .  A
C1533      H1540   1.084       .  S
C1534      C1535   1.405       .  A
C1535      C1536   1.406       .  A
C1535      N1542   1.432       .  S
C1536      C1537   1.404       .  A
C1536      H1541   1.081       .  S
C1537      C1538   1.409       .  A
C1538      N1539   1.437       .  S
N1539      H1543   1.045       .  S
N1539      H1544   1.045       .  S
N1542      H1545   1.045       .  S
N1542      H1546   1.045       .  S
C1547      C1548   1.406       .  A
C1547      C1552   1.414   1_655  A
C1547      H1554   1.083       .  S
C1548      C1549   1.410       .  A
C1549      C1550   1.398   1_655  A
C1549      N1556   1.434       .  S
C1550      C1551   1.403       .  A
C1550      H1555   1.084       .  S
C1551      C1552   1.416       .  A
C1552      N1553   1.437       .  S
N1553      H1557   1.046       .  S
N1553      H1558   1.045       .  S
N1556      H1559   1.046       .  S
N1556      H1560   1.046       .  S
C1561      C1562   1.406       .  A
C1561      C1566   1.413       .  A
C1561      H1568   1.084       .  S
C1562      C1563   1.413       .  A
C1563      C1564   1.393       .  A
C1563      N1570   1.434       .  S
C1564      C1565   1.402       .  A
C1564      H1569   1.082       .  S
C1565      C1566   1.413       .  A
C1566      N1567   1.437       .  S
N1567      H1571   1.046       .  S
N1567      H1572   1.045       .  S
N1570      H1573   1.045       .  S
N1570      H1574   1.043       .  S
C1575      C1576   1.401       .  A
C1575      C1580   1.406       .  A
C1575      H1582   1.084       .  S
C1576      C1577   1.414       .  A
C1577      C1578   1.408       .  A
C1577      N1584   1.439       .  S
C1578      C1579   1.400       .  A
C1578      H1583   1.084       .  S
C1579      C1580   1.408       .  A
C1580      N1581   1.432       .  S
N1581      H1585   1.044       .  S
N1581      H1586   1.045       .  S
N1584      H1587   1.043       .  S
N1584      H1588   1.046       .  S
C1589      C1590   1.406       .  A
C1589      C1594   1.409       .  A
C1589      H1596   1.083       .  S
C1590      C1591   1.408       .  A
C1591      C1592   1.407       .  A
C1591      N1598   1.438       .  S
C1592      C1593   1.405       .  A
C1592      H1597   1.084       .  S
C1593      C1594   1.407       .  A
C1594      N1595   1.437       .  S
N1595      H1599   1.046       .  S
N1595      H1600   1.045       .  S
N1598      H1601   1.046       .  S
N1598      H1602   1.046       .  S
C1603      C1604   1.405       .  A
C1603      C1608   1.400   1_655  A
C1603      H1610   1.084       .  S
C1604      C1605   1.417       .  A
C1605      C1606   1.416   1_655  A
C1605      N1612   1.437       .  S
C1606      C1607   1.405       .  A
C1606      H1611   1.084       .  S
C1607      C1608   1.412       .  A
C1608      N1609   1.438       .  S
N1609      H1613   1.045       .  S
N1609      H1614   1.046       .  S
N1612      H1615   1.045       .  S
N1612      H1616   1.046       .  S
C1617      C1618   1.405       .  A
C1617      C1622   1.407       .  A
C1617      H1624   1.084       .  S
C1618      C1619   1.409       .  A
C1619      C1620   1.397       .  A
C1619      N1626   1.432       .  S
C1620      C1621   1.403       .  A
C1620      H1625   1.085       .  S
C1621      C1622   1.411       .  A
C1622      N1623   1.432       .  S
N1623      H1627   1.045       .  S
N1623      H1628   1.046       .  S
N1626      H1629   1.046       .  S
N1626      H1630   1.046       .  S
C1631      C1632   1.404       .  A
C1631      C1636   1.398       .  A
C1631      H1638   1.084       .  S
C1632      C1633   1.413       .  A
C1633      C1634   1.405       .  A
C1633      N1640   1.438       .  S
C1634      C1635   1.405       .  A
C1634      H1639   1.083       .  S
C1635      C1636   1.410       .  A
C1636      N1637   1.432       .  S
N1637      H1641   1.045       .  S
N1637      H1642   1.046       .  S
N1640      H1643   1.045       .  S
N1640      H1644   1.046       .  S
C1645      C1646   1.403       .  A
C1645      C1650   1.409       .  A
C1645      H1652   1.084       .  S
C1646      C1647   1.420       .  A
C1647      C1648   1.406       .  A
C1647      N1654   1.439       .  S
C1648      C1649   1.401       .  A
C1648      H1653   1.084       .  S
C1649      C1650   1.409       .  A
C1650      N1651   1.432       .  S
N1651      H1655   1.045       .  S
N1651      H1656   1.045       .  S
N1654      H1657   1.044       .  S
N1654      H1658   1.045       .  S
C1659      C1660   1.402       .  A
C1659      C1664   1.410       .  A
C1659      H1666   1.084       .  S
C1660      C1661   1.414       .  A
C1661      C1662   1.409       .  A
C1661      N1668   1.439       .  S
C1662      C1663   1.401       .  A
C1662      H1667   1.084       .  S
C1663      C1664   1.413       .  A
C1664      N1665   1.439       .  S
N1665      H1669   1.046       .  S
N1665      H1670   1.044       .  S
N1668      H1671   1.044       .  S
N1668      H1672   1.046       .  S
C1673      C1674   1.403       .  A
C1673      C1678   1.399       .  A
C1673      H1680   1.084       .  S
C1674      C1675   1.415       .  A
C1675      C1676   1.416       .  A
C1675      N1682   1.437       .  S
C1676      C1677   1.406       .  A
C1676      H1681   1.084       .  S
C1677      C1678   1.417       .  A
C1678      N1679   1.434       .  S
N1679      H1683   1.044       .  S
N1679      H1684   1.046       .  S
N1682      H1685   1.045       .  S
N1682      H1686   1.046       .  S
C1687      C1688   1.405       .  A
C1687      C1692   1.402       .  A
C1687      H1694   1.084       .  S
C1688      C1689   1.415       .  A
C1689      C1690   1.412       .  A
C1689      N1696   1.437       .  S
C1690      C1691   1.405       .  A
C1690      H1695   1.083       .  S
C1691      C1692   1.413       .  A
C1692      N1693   1.439       .  S
N1693      H1697   1.046       .  S
N1693      H1698   1.046       .  S
N1696      H1699   1.046       .  S
N1696      H1700   1.046       .  S
C1701      C1702   1.407       .  A
C1701      C1706   1.415       .  A
C1701      H1708   1.083       .  S
C1702      C1703   1.412       .  A
C1703      C1704   1.399       .  A
C1703      N1710   1.434       .  S
C1704      C1705   1.406       .  A
C1704      H1709   1.084       .  S
C1705      C1706   1.418       .  A
C1706      N1707   1.437       .  S
N1707      H1711   1.046       .  S
N1707      H1712   1.046       .  S
N1710      H1713   1.046       .  S
N1710      H1714   1.046       .  S
C1715      C1716   1.402       .  A
C1715      C1720   1.401       .  A
C1715      H1722   1.084       .  S
C1716      C1717   1.413       .  A
C1717      C1718   1.406       .  A
C1717      N1724   1.439       .  S
C1718      C1719   1.402       .  A
C1718      H1723   1.084       .  S
C1719      C1720   1.410       .  A
C1720      N1721   1.438       .  S
N1721      H1725   1.045       .  S
N1721      H1726   1.045       .  S
N1724      H1727   1.046       .  S
N1724      H1728   1.046       .  S
C1729      C1730   1.407       .  A
C1729      C1734   1.409   1_565  A
C1729      H1736   1.084       .  S
C1730      C1731   1.416       .  A
C1731      C1732   1.405   1_565  A
C1731      N1738   1.439       .  S
C1732      C1733   1.404       .  A
C1732      H1737   1.084       .  S
C1733      C1734   1.410       .  A
C1734      N1735   1.432       .  S
N1735      H1739   1.045       .  S
N1735      H1740   1.046       .  S
N1738      H1741   1.046       .  S
N1738      H1742   1.046       .  S
C1743      C1744   1.404       .  A
C1743      C1748   1.402       .  A
C1743      H1750   1.085       .  S
C1744      C1745   1.404       .  A
C1745      C1746   1.408       .  A
C1745      N1752   1.432       .  S
C1746      C1747   1.407       .  A
C1746      H1751   1.084       .  S
C1747      C1748   1.415       .  A
C1748      N1749   1.439       .  S
N1749      H1753   1.045       .  S
N1749      H1754   1.044       .  S
N1752      H1755   1.045       .  S
N1752      H1756   1.045       .  S
C1757      C1758   1.405       .  A
C1757      C1762   1.408       .  A
C1757      H1764   1.083       .  S
C1758      C1759   1.408       .  A
C1759      C1760   1.409       .  A
C1759      N1766   1.437       .  S
C1760      C1761   1.405       .  A
C1760      H1765   1.084       .  S
C1761      C1762   1.409       .  A
C1762      N1763   1.439       .  S
N1763      H1767   1.046       .  S
N1763      H1768   1.046       .  S
N1766      H1769   1.045       .  S
N1766      H1770   1.046       .  S
C1771      C1772   1.407       .  A
C1771      C1776   1.417   1_655  A
C1771      H1778   1.083       .  S
C1772      C1773   1.409       .  A
C1773      C1774   1.399   1_655  A
C1773      N1780   1.433       .  S
C1774      C1775   1.407       .  A
C1774      H1779   1.084       .  S
C1775      C1776   1.419       .  A
C1776      N1777   1.437       .  S
N1777      H1781   1.046       .  S
N1777      H1782   1.046       .  S
N1780      H1783   1.046       .  S
N1780      H1784   1.046       .  S
C1785      C1786   1.405       .  A
C1785      C1790   1.406   1_545  A
C1785      H1792   1.084       .  S
C1786      C1787   1.414       .  A
C1787      C1788   1.414   1_545  A
C1787      N1794   1.437       .  S
C1788      C1789   1.408       .  A
C1788      H1793   1.083       .  S
C1789      C1790   1.415       .  A
C1790      N1791   1.439       .  S
N1791      H1795   1.046       .  S
N1791      H1796   1.046       .  S
N1794      H1797   1.046       .  S
N1794      H1798   1.046       .  S
C1799      C1800   1.407       .  A
C1799      C1804   1.410       .  A
C1799      H1806   1.083       .  S
C1800      C1801   1.415       .  A
C1801      C1802   1.399       .  A
C1801      N1808   1.437       .  S
C1802      C1803   1.402       .  A
C1802      H1807   1.084       .  S
C1803      C1804   1.412       .  A
C1804      N1805   1.438       .  S
N1805      H1809   1.046       .  S
N1805      H1810   1.046       .  S
N1808      H1811   1.042       .  S
N1808      H1812   1.046       .  S
C1813      C1814   1.400       .  A
C1813      C1818   1.401       .  A
C1813      H1820   1.084       .  S
C1814      C1815   1.418       .  A
C1815      C1816   1.411       .  A
C1815      N1822   1.438       .  S
C1816      C1817   1.404       .  A
C1816      H1821   1.084       .  S
C1817      C1818   1.418       .  A
C1818      N1819   1.439       .  S
N1819      H1823   1.045       .  S
N1819      H1824   1.044       .  S
N1822      H1825   1.044       .  S
N1822      H1826   1.042       .  S
C1827      C1828   1.405       .  A
C1827      C1832   1.407       .  A
C1827      H1834   1.084       .  S
C1828      C1829   1.413       .  A
C1829      C1830   1.398       .  A
C1829      N1836   1.434       .  S
C1830      C1831   1.405       .  A
C1830      H1835   1.084       .  S
C1831      C1832   1.422       .  A
C1832      N1833   1.432       .  S
N1833      H1837   1.045       .  S
N1833      H1838   1.045       .  S
N1836      H1839   1.046       .  S
N1836      H1840   1.046       .  S
C1841      C1842   1.401       .  A
C1841      C1846   1.397       .  A
C1841      H1848   1.085       .  S
C1842      C1843   1.413       .  A
C1843      C1844   1.410       .  A
C1843      N1850   1.438       .  S
C1844      C1845   1.406       .  A
C1844      H1849   1.084       .  S
C1845      C1846   1.409       .  A
C1846      N1847   1.432       .  S
N1847      H1851   1.046       .  S
N1847      H1852   1.046       .  S
N1850      H1853   1.046       .  S
N1850      H1854   1.046       .  S
C1855      C1856   1.403       .  A
C1855      C1860   1.405       .  A
C1855      H1862   1.084       .  S
C1856      C1857   1.419       .  A
C1857      C1858   1.405       .  A
C1857      N1864   1.439       .  S
C1858      C1859   1.400       .  A
C1858      H1863   1.084       .  S
C1859      C1860   1.415       .  A
C1860      N1861   1.433       .  S
N1861      H1865   1.044       .  S
N1861      H1866   1.045       .  S
N1864      H1867   1.045       .  S
N1864      H1868   1.045       .  S
C1869      C1870   1.405       .  A
C1869      C1874   1.408       .  A
C1869      H1876   1.084       .  S
C1870      C1871   1.407       .  A
C1871      C1872   1.395       .  A
C1871      N1878   1.432       .  S
C1872      C1873   1.402       .  A
C1872      H1877   1.082       .  S
C1873      C1874   1.412       .  A
C1874      N1875   1.437       .  S
N1875      H1879   1.046       .  S
N1875      H1880   1.045       .  S
N1878      H1881   1.046       .  S
N1878      H1882   1.046       .  S
C1883      C1884   1.407       .  A
C1883      C1888   1.415   1_455  A
C1883      H1890   1.083       .  S
C1884      C1885   1.416       .  A
C1885      C1886   1.400   1_455  A
C1885      N1892   1.440       .  S
C1886      C1887   1.407       .  A
C1886      H1891   1.083       .  S
C1887      C1888   1.418       .  A
C1888      N1889   1.437       .  S
N1889      H1893   1.046       .  S
N1889      H1894   1.046       .  S
N1892      H1895   1.046       .  S
N1892      H1896   1.046       .  S
C1897      C1898   1.401       .  A
C1897      C1902   1.393       .  A
C1897      H1904   1.083       .  S
C1898      C1899   1.417       .  A
C1899      C1900   1.402       .  A
C1899      N1906   1.438       .  S
C1900      C1901   1.404       .  A
C1900      H1905   1.084       .  S
C1901      C1902   1.415       .  A
C1902      N1903   1.434       .  S
N1903      H1907   1.043       .  S
N1903      H1908   1.045       .  S
N1906      H1909   1.041       .  S
N1906      H1910   1.045       .  S
C1911      C1912   1.406       .  A
C1911      C1916   1.399       .  A
C1911      H1918   1.084       .  S
C1912      C1913   1.420       .  A
C1913      C1914   1.402       .  A
C1913      N1920   1.432       .  S
C1914      C1915   1.402       .  A
C1914      H1919   1.084       .  S
C1915      C1916   1.408       .  A
C1916      N1917   1.433       .  S
N1917      H1921   1.046       .  S
N1917      H1922   1.046       .  S
N1920      H1923   1.045       .  S
N1920      H1924   1.045       .  S
C1925      C1926   1.404       .  A
C1925      C1930   1.407       .  A
C1925      H1932   1.084       .  S
C1926      C1927   1.407       .  A
C1927      C1928   1.410       .  A
C1927      N1934   1.437       .  S
C1928      C1929   1.406       .  A
C1928      H1933   1.084       .  S
C1929      C1930   1.410       .  A
C1930      N1931   1.439       .  S
N1931      H1935   1.046       .  S
N1931      H1936   1.046       .  S
N1934      H1937   1.045       .  S
N1934      H1938   1.046       .  S
C1939      C1940   1.403       .  A
C1939      C1944   1.412       .  A
C1939      H1946   1.084       .  S
C1940      C1941   1.414       .  A
C1941      C1942   1.406       .  A
C1941      N1948   1.438       .  S
C1942      C1943   1.399       .  A
C1942      H1947   1.084       .  S
C1943      C1944   1.413       .  A
C1944      N1945   1.438       .  S
N1945      H1949   1.046       .  S
N1945      H1950   1.045       .  S
N1948      H1951   1.045       .  S
N1948      H1952   1.046       .  S
C1953      C1954   1.403       .  A
C1953      C1958   1.404       .  A
C1953      H1960   1.084       .  S
C1954      C1955   1.413       .  A
C1955      C1956   1.413       .  A
C1955      N1962   1.437       .  S
C1956      C1957   1.406       .  A
C1956      H1961   1.084       .  S
C1957      C1958   1.412       .  A
C1958      N1959   1.439       .  S
N1959      H1963   1.046       .  S
N1959      H1964   1.046       .  S
N1962      H1965   1.046       .  S
N1962      H1966   1.046       .  S
C1967      C1968   1.406       .  A
C1967      C1972   1.402       .  A
C1967      H1974   1.084       .  S
C1968      C1969   1.411       .  A
C1969      C1970   1.399       .  A
C1969      N1976   1.432       .  S
C1970      C1971   1.402       .  A
C1970      H1975   1.085       .  S
C1971      C1972   1.412       .  A
C1972      N1973   1.432       .  S
N1973      H1977   1.045       .  S
N1973      H1978   1.045       .  S
N1976      H1979   1.046       .  S
N1976      H1980   1.046       .  S
C1981      C1982   1.402       .  A
C1981      C1986   1.398       .  A
C1981      H1988   1.084       .  S
C1982      C1983   1.418       .  A
C1983      C1984   1.406       .  A
C1983      N1990   1.432       .  S
C1984      C1985   1.404       .  A
C1984      H1989   1.084       .  S
C1985      C1986   1.410       .  A
C1986      N1987   1.433       .  S
N1987      H1991   1.046       .  S
N1987      H1992   1.046       .  S
N1990      H1993   1.046       .  S
N1990      H1994   1.045       .  S
C1995      C1996   1.404       .  A
C1995      C2000   1.401       .  A
C1995      H2002   1.084       .  S
C1996      C1997   1.410       .  A
C1997      C1998   1.406       .  A
C1997      N2004   1.432       .  S
C1998      C1999   1.404       .  A
C1998      H2003   1.084       .  S
C1999      C2000   1.409       .  A
C2000      N2001   1.437       .  S
N2001      H2005   1.045       .  S
N2001      H2006   1.045       .  S
N2004      H2007   1.046       .  S
N2004      H2008   1.045       .  S
C2009      C2010   1.406       .  A
C2009      C2014   1.413       .  A
C2009      H2016   1.084       .  S
C2010      C2011   1.410       .  A
C2011      C2012   1.397       .  A
C2011      N2018   1.433       .  S
C2012      C2013   1.402       .  A
C2012      H2017   1.084       .  S
C2013      C2014   1.413       .  A
C2014      N2015   1.438       .  S
N2015      H2019   1.046       .  S
N2015      H2020   1.046       .  S
N2018      H2021   1.046       .  S
N2018      H2022   1.046       .  S
C2023      C2024   1.401       .  A
C2023      C2028   1.402   1_556  A
C2023      H2030   1.084       .  S
C2024      C2025   1.408       .  A
C2025      C2026   1.410   1_556  A
C2025      N2032   1.437       .  S
C2026      C2027   1.406       .  A
C2026      H2031   1.084       .  S
C2027      C2028   1.412       .  A
C2028      N2029   1.439       .  S
N2029      H2033   1.046       .  S
N2029      H2034   1.046       .  S
N2032      H2035   1.045       .  S
N2032      H2036   1.046       .  S
C2037      C2038   1.405       .  A
C2037      C2042   1.411       .  A
C2037      H2044   1.084       .  S
C2038      C2039   1.410       .  A
C2039      C2040   1.400       .  A
C2039      N2046   1.433       .  S
C2040      C2041   1.407       .  A
C2040      H2045   1.084       .  S
C2041      C2042   1.408       .  A
C2042      N2043   1.436       .  S
N2043      H2047   1.046       .  S
N2043      H2048   1.045       .  S
N2046      H2049   1.045       .  S
N2046      H2050   1.046       .  S
C2051      C2052   1.400       .  A
C2051      C2056   1.403       .  A
C2051      H2058   1.084       .  S
C2052      C2053   1.412       .  A
C2053      C2054   1.410       .  A
C2053      N2060   1.439       .  S
C2054      C2055   1.402       .  A
C2054      H2059   1.084       .  S
C2055      C2056   1.417       .  A
C2056      N2057   1.438       .  S
N2057      H2061   1.045       .  S
N2057      H2062   1.045       .  S
N2060      H2063   1.045       .  S
N2060      H2064   1.046       .  S
C2065      C2066   1.404       .  A
C2065      C2070   1.399   1_556  A
C2065      H2072   1.084       .  S
C2066      C2067   1.415       .  A
C2067      C2068   1.417   1_556  A
C2067      N2074   1.437       .  S
C2068      C2069   1.409       .  A
C2068      H2073   1.083       .  S
C2069      C2070   1.412       .  A
C2070      N2071   1.439       .  S
N2071      H2075   1.046       .  S
N2071      H2076   1.046       .  S
N2074      H2077   1.045       .  S
N2074      H2078   1.046       .  S
C2079      C2080   1.402       .  A
C2079      C2084   1.409       .  A
C2079      H2086   1.084       .  S
C2080      C2081   1.414       .  A
C2081      C2082   1.409       .  A
C2081      N2088   1.439       .  S
C2082      C2083   1.401       .  A
C2082      H2087   1.084       .  S
C2083      C2084   1.410       .  A
C2084      N2085   1.437       .  S
N2085      H2089   1.046       .  S
N2085      H2090   1.046       .  S
N2088      H2091   1.044       .  S
N2088      H2092   1.046       .  S
C2093      C2094   1.403       .  A
C2093      C2098   1.408       .  A
C2093      H2100   1.084       .  S
C2094      C2095   1.420       .  A
C2095      C2096   1.403       .  A
C2095      N2102   1.439       .  S
C2096      C2097   1.399       .  A
C2096      H2101   1.084       .  S
C2097      C2098   1.409       .  A
C2098      N2099   1.432       .  S
N2099      H2103   1.045       .  S
N2099      H2104   1.045       .  S
N2102      H2105   1.044       .  S
N2102      H2106   1.045       .  S
C2107      C2108   1.401       .  A
C2107      C2112   1.397       .  A
C2107      H2114   1.084       .  S
C2108      C2109   1.410       .  A
C2109      C2110   1.410       .  A
C2109      N2116   1.437       .  S
C2110      C2111   1.407       .  A
C2110      H2115   1.083       .  S
C2111      C2112   1.411       .  A
C2112      N2113   1.433       .  S
N2113      H2117   1.046       .  S
N2113      H2118   1.046       .  S
N2116      H2119   1.045       .  S
N2116      H2120   1.046       .  S
C2121      C2122   1.406       .  A
C2121      C2126   1.409       .  A
C2121      H2128   1.084       .  S
C2122      C2123   1.405       .  A
C2123      C2124   1.408       .  A
C2123      N2130   1.431       .  S
C2124      C2125   1.406       .  A
C2124      H2129   1.084       .  S
C2125      C2126   1.408       .  A
C2126      N2127   1.437       .  S
N2127      H2131   1.045       .  S
N2127      H2132   1.045       .  S
N2130      H2133   1.044       .  S
N2130      H2134   1.045       .  S
C2135      C2136   1.402       .  A
C2135      C2140   1.405       .  A
C2135      H2142   1.084       .  S
C2136      C2137   1.407       .  A
C2137      C2138   1.397       .  A
C2137      N2144   1.433       .  S
C2138      C2139   1.403       .  A
C2138      H2143   1.083       .  S
C2139      C2140   1.412       .  A
C2140      N2141   1.433       .  S
N2141      H2145   1.046       .  S
N2141      H2146   1.045       .  S
N2144      H2147   1.046       .  S
N2144      H2148   1.045       .  S
C2149      C2150   1.406       .  A
C2149      C2154   1.405       .  A
C2149      H2156   1.084       .  S
C2150      C2151   1.415       .  A
C2151      C2152   1.403       .  A
C2151      N2158   1.438       .  S
C2152      C2153   1.405       .  A
C2152      H2157   1.085       .  S
C2153      C2154   1.410       .  A
C2154      N2155   1.432       .  S
N2155      H2159   1.045       .  S
N2155      H2160   1.045       .  S
N2158      H2161   1.044       .  S
N2158      H2162   1.045       .  S
C2163      C2164   1.404       .  A
C2163      C2168   1.399       .  A
C2163      H2170   1.084       .  S
C2164      C2165   1.413       .  A
C2165      C2166   1.407       .  A
C2165      N2172   1.438       .  S
C2166      C2167   1.403       .  A
C2166      H2171   1.084       .  S
C2167      C2168   1.410       .  A
C2168      N2169   1.439       .  S
N2169      H2173   1.046       .  S
N2169      H2174   1.045       .  S
N2172      H2175   1.046       .  S
N2172      H2176   1.046       .  S
C2177      C2178   1.407       .  A
C2177      C2182   1.413       .  A
C2177      H2184   1.083       .  S
C2178      C2179   1.413       .  A
C2179      C2180   1.399       .  A
C2179      N2186   1.440       .  S
C2180      C2181   1.405       .  A
C2180      H2185   1.084       .  S
C2181      C2182   1.414       .  A
C2182      N2183   1.437       .  S
N2183      H2187   1.046       .  S
N2183      H2188   1.046       .  S
N2186      H2189   1.046       .  S
N2186      H2190   1.046       .  S
C2191      C2192   1.400       .  A
C2191      C2196   1.400       .  A
C2191      H2198   1.084       .  S
C2192      C2193   1.413       .  A
C2193      C2194   1.413       .  A
C2193      N2200   1.437       .  S
C2194      C2195   1.407       .  A
C2194      H2199   1.083       .  S
C2195      C2196   1.411       .  A
C2196      N2197   1.433       .  S
N2197      H2201   1.046       .  S
N2197      H2202   1.046       .  S
N2200      H2203   1.045       .  S
N2200      H2204   1.046       .  S
C2205      C2206   1.409       .  A
C2205      C2210   1.413       .  A
C2205      H2212   1.083       .  S
C2206      C2207   1.419       .  A
C2207      C2208   1.399       .  A
C2207      N2214   1.439       .  S
C2208      C2209   1.400       .  A
C2208      H2213   1.084       .  S
C2209      C2210   1.411       .  A
C2210      N2211   1.436       .  S
N2211      H2215   1.046       .  S
N2211      H2216   1.044       .  S
N2214      H2217   1.046       .  S
N2214      H2218   1.046       .  S
C2219      C2220   1.404       .  A
C2219      C2224   1.399       .  A
C2219      H2226   1.084       .  S
C2220      C2221   1.413       .  A
C2221      C2222   1.409       .  A
C2221      N2228   1.437       .  S
C2222      C2223   1.403       .  A
C2222      H2227   1.084       .  S
C2223      C2224   1.410       .  A
C2224      N2225   1.439       .  S
N2225      H2229   1.046       .  S
N2225      H2230   1.045       .  S
N2228      H2231   1.044       .  S
N2228      H2232   1.046       .  S
C2233      C2234   1.405       .  A
C2233      C2238   1.409       .  A
C2233      H2240   1.083       .  S
C2234      C2235   1.410       .  A
C2235      C2236   1.399       .  A
C2235      N2242   1.433       .  S
C2236      C2237   1.402       .  A
C2236      H2241   1.084       .  S
C2237      C2238   1.412       .  A
C2238      N2239   1.437       .  S
N2239      H2243   1.046       .  S
N2239      H2244   1.045       .  S
N2242      H2245   1.046       .  S
N2242      H2246   1.046       .  S
C2247      C2248   1.403       .  A
C2247      C2252   1.410       .  A
C2247      H2254   1.084       .  S
C2248      C2249   1.406       .  A
C2249      C2250   1.393       .  A
C2249      N2256   1.432       .  S
C2250      C2251   1.402       .  A
C2250      H2255   1.084       .  S
C2251      C2252   1.414       .  A
C2252      N2253   1.436       .  S
N2253      H2257   1.046       .  S
N2253      H2258   1.044       .  S
N2256      H2259   1.046       .  S
N2256      H2260   1.046       .  S
C2261      C2262   1.407       .  A
C2261      C2266   1.410       .  A
C2261      H2268   1.083       .  S
C2262      C2263   1.414       .  A
C2263      C2264   1.401       .  A
C2263      N2270   1.433       .  S
C2264      C2265   1.405       .  A
C2264      H2269   1.084       .  S
C2265      C2266   1.416       .  A
C2266      N2267   1.438       .  S
N2267      H2271   1.046       .  S
N2267      H2272   1.046       .  S
N2270      H2273   1.046       .  S
N2270      H2274   1.046       .  S
C2275      C2276   1.408       .  A
C2275      C2280   1.407   1_455  A
C2275      H2282   1.083       .  S
C2276      C2277   1.418       .  A
C2277      C2278   1.403   1_455  A
C2277      N2284   1.439       .  S
C2278      C2279   1.404       .  A
C2278      H2283   1.084       .  S
C2279      C2280   1.417       .  A
C2280      N2281   1.432       .  S
N2281      H2285   1.045       .  S
N2281      H2286   1.045       .  S
N2284      H2287   1.046       .  S
N2284      H2288   1.046       .  S
C2289      C2290   1.406       .  A
C2289      C2294   1.405       .  A
C2289      H2296   1.084       .  S
C2290      C2291   1.414       .  A
C2291      C2292   1.401       .  A
C2291      N2298   1.438       .  S
C2292      C2293   1.404       .  A
C2292      H2297   1.085       .  S
C2293      C2294   1.410       .  A
C2294      N2295   1.432       .  S
N2295      H2299   1.046       .  S
N2295      H2300   1.045       .  S
N2298      H2301   1.044       .  S
N2298      H2302   1.046       .  S
C2303      C2304   1.407       .  A
C2303      C2308   1.410       .  A
C2303      H2310   1.084       .  S
C2304      C2305   1.410       .  A
C2305      C2306   1.402       .  A
C2305      N2312   1.433       .  S
C2306      C2307   1.406       .  A
C2306      H2311   1.084       .  S
C2307      C2308   1.408       .  A
C2308      N2309   1.436       .  S
N2309      H2313   1.046       .  S
N2309      H2314   1.045       .  S
N2312      H2315   1.045       .  S
N2312      H2316   1.046       .  S
C2317      C2318   1.409       .  A
C2317      C2322   1.415   1_556  A
C2317      H2324   1.083       .  S
C2318      C2319   1.415       .  A
C2319      C2320   1.400   1_556  A
C2319      N2326   1.439       .  S
C2320      C2321   1.404       .  A
C2320      H2325   1.084       .  S
C2321      C2322   1.414       .  A
C2322      N2323   1.437       .  S
N2323      H2327   1.046       .  S
N2323      H2328   1.046       .  S
N2326      H2329   1.046       .  S
N2326      H2330   1.046       .  S
C2331      C2332   1.408       .  A
C2331      C2336   1.409   1_455  A
C2331      H2338   1.084       .  S
C2332      C2333   1.417       .  A
C2333      C2334   1.399   1_455  A
C2333      N2340   1.434       .  S
C2334      C2335   1.406       .  A
C2334      H2339   1.084       .  S
C2335      C2336   1.417       .  A
C2336      N2337   1.432       .  S
N2337      H2341   1.045       .  S
N2337      H2342   1.046       .  S
N2340      H2343   1.046       .  S
N2340      H2344   1.044       .  S
C2345      C2346   1.403       .  A
C2345      C2350   1.405       .  A
C2345      H2352   1.084       .  S
C2346      C2347   1.419       .  A
C2347      C2348   1.404       .  A
C2347      N2354   1.439       .  S
C2348      C2349   1.401       .  A
C2348      H2353   1.084       .  S
C2349      C2350   1.415       .  A
C2350      N2351   1.433       .  S
N2351      H2355   1.045       .  S
N2351      H2356   1.046       .  S
N2354      H2357   1.044       .  S
N2354      H2358   1.045       .  S
C2359      C2360   1.400       .  A
C2359      C2364   1.404       .  A
C2359      H2366   1.084       .  S
C2360      C2361   1.414       .  A
C2361      C2362   1.410       .  A
C2361      N2368   1.439       .  S
C2362      C2363   1.402       .  A
C2362      H2367   1.084       .  S
C2363      C2364   1.416       .  A
C2364      N2365   1.437       .  S
N2365      H2369   1.045       .  S
N2365      H2370   1.045       .  S
N2368      H2371   1.043       .  S
N2368      H2372   1.046       .  S
C2373      C2374   1.403       .  A
C2373      C2378   1.397       .  A
C2373      H2380   1.085       .  S
C2374      C2375   1.416       .  A
C2375      C2376   1.402       .  A
C2375      N2382   1.432       .  S
C2376      C2377   1.407       .  A
C2376      H2381   1.084       .  S
C2377      C2378   1.421       .  A
C2378      N2379   1.434       .  S
N2379      H2383   1.044       .  S
N2379      H2384   1.045       .  S
N2382      H2385   1.046       .  S
N2382      H2386   1.045       .  S
C2387      C2388   1.403       .  A
C2387      C2392   1.397   1_556  A
C2387      H2394   1.084       .  S
C2388      C2389   1.414       .  A
C2389      C2390   1.415   1_556  A
C2389      N2396   1.437       .  S
C2390      C2391   1.407       .  A
C2390      H2395   1.083       .  S
C2391      C2392   1.409       .  A
C2392      N2393   1.433       .  S
N2393      H2397   1.046       .  S
N2393      H2398   1.046       .  S
N2396      H2399   1.045       .  S
N2396      H2400   1.046       .  S
C2401      C2402   1.405       .  A
C2401      C2406   1.405       .  A
C2401      H2408   1.084       .  S
C2402      C2403   1.412       .  A
C2403      C2404   1.399       .  A
C2403      N2410   1.437       .  S
C2404      C2405   1.402       .  A
C2404      H2409   1.083       .  S
C2405      C2406   1.416       .  A
C2406      N2407   1.432       .  S
N2407      H2411   1.045       .  S
N2407      H2412   1.045       .  S
N2410      H2413   1.044       .  S
N2410      H2414   1.046       .  S
C2415      C2416   1.404       .  A
C2415      C2420   1.401       .  A
C2415      H2422   1.083       .  S
C2416      C2417   1.410       .  A
C2417      C2418   1.406       .  A
C2417      N2424   1.432       .  S
C2418      C2419   1.403       .  A
C2418      H2423   1.084       .  S
C2419      C2420   1.410       .  A
C2420      N2421   1.438       .  S
N2421      H2425   1.046       .  S
N2421      H2426   1.045       .  S
N2424      H2427   1.046       .  S
N2424      H2428   1.045       .  S
C2429      C2430   1.400       .  A
C2429      C2434   1.406       .  A
C2429      H2436   1.084       .  S
C2430      C2431   1.409       .  A
C2431      C2432   1.408       .  A
C2431      N2438   1.433       .  S
C2432      C2433   1.402       .  A
C2432      H2437   1.084       .  S
C2433      C2434   1.414       .  A
C2434      N2435   1.439       .  S
N2435      H2439   1.046       .  S
N2435      H2440   1.044       .  S
N2438      H2441   1.045       .  S
N2438      H2442   1.044       .  S
C2443      C2444   1.402       .  A
C2443      C2448   1.410       .  A
C2443      H2450   1.084       .  S
C2444      C2445   1.414       .  A
C2445      C2446   1.409       .  A
C2445      N2452   1.439       .  S
C2446      C2447   1.401       .  A
C2446      H2451   1.084       .  S
C2447      C2448   1.412       .  A
C2448      N2449   1.438       .  S
N2449      H2453   1.046       .  S
N2449      H2454   1.046       .  S
N2452      H2455   1.045       .  S
N2452      H2456   1.046       .  S
C2457      C2458   1.405       .  A
C2457      C2462   1.403       .  A
C2457      H2464   1.084       .  S
C2458      C2459   1.414       .  A
C2459      C2460   1.414       .  A
C2459      N2466   1.437       .  S
C2460      C2461   1.407       .  A
C2460      H2465   1.083       .  S
C2461      C2462   1.413       .  A
C2462      N2463   1.439       .  S
N2463      H2467   1.046       .  S
N2463      H2468   1.046       .  S
N2466      H2469   1.046       .  S
N2466      H2470   1.046       .  S
C2471      C2472   1.405       .  A
C2471      C2476   1.401       .  A
C2471      H2478   1.084       .  S
C2472      C2473   1.421       .  A
C2473      C2474   1.408       .  A
C2473      N2480   1.439       .  S
C2474      C2475   1.405       .  A
C2474      H2479   1.084       .  S
C2475      C2476   1.411       .  A
C2476      N2477   1.439       .  S
N2477      H2481   1.046       .  S
N2477      H2482   1.046       .  S
N2480      H2483   1.041       .  S
N2480      H2484   1.046       .  S
C2485      C2486   1.404       .  A
C2485      C2490   1.397       .  A
C2485      H2492   1.084       .  S
C2486      C2487   1.415       .  A
C2487      C2488   1.416       .  A
C2487      N2494   1.437       .  S
C2488      C2489   1.409       .  A
C2488      H2493   1.083       .  S
C2489      C2490   1.420       .  A
C2490      N2491   1.434       .  S
N2491      H2495   1.044       .  S
N2491      H2496   1.046       .  S
N2494      H2497   1.045       .  S
N2494      H2498   1.046       .  S
C2499      C2500   1.400       .  A
C2499      C2504   1.404       .  A
C2499      H2506   1.084       .  S
C2500      C2501   1.413       .  A
C2501      C2502   1.396       .  A
C2501      N2508   1.434       .  S
C2502      C2503   1.403       .  A
C2502      H2507   1.084       .  S
C2503      C2504   1.415       .  A
C2504      N2505   1.438       .  S
N2505      H2509   1.046       .  S
N2505      H2510   1.045       .  S
N2508      H2511   1.046       .  S
N2508      H2512   1.044       .  S
C2513      C2514   1.406       .  A
C2513      C2518   1.417       .  A
C2513      H2520   1.083       .  S
C2514      C2515   1.414       .  A
C2515      C2516   1.399       .  A
C2515      N2522   1.434       .  S
C2516      C2517   1.404       .  A
C2516      H2521   1.084       .  S
C2517      C2518   1.420       .  A
C2518      N2519   1.437       .  S
N2519      H2523   1.046       .  S
N2519      H2524   1.046       .  S
N2522      H2525   1.046       .  S
N2522      H2526   1.046       .  S
C2527      C2528   1.403       .  A
C2527      C2532   1.410       .  A
C2527      H2534   1.084       .  S
C2528      C2529   1.409       .  A
C2529      C2530   1.399       .  A
C2529      N2536   1.436       .  S
C2530      C2531   1.401       .  A
C2530      H2535   1.083       .  S
C2531      C2532   1.414       .  A
C2532      N2533   1.438       .  S
N2533      H2537   1.046       .  S
N2533      H2538   1.046       .  S
N2536      H2539   1.045       .  S
N2536      H2540   1.046       .  S
C2541      C2542   1.405       .  A
C2541      C2546   1.407       .  A
C2541      H2548   1.084       .  S
C2542      C2543   1.411       .  A
C2543      C2544   1.401       .  A
C2543      N2550   1.438       .  S
C2544      C2545   1.402       .  A
C2544      H2549   1.084       .  S
C2545      C2546   1.408       .  A
C2546      N2547   1.432       .  S
N2547      H2551   1.045       .  S
N2547      H2552   1.045       .  S
N2550      H2553   1.045       .  S
N2550      H2554   1.045       .  S
C2555      C2556   1.407       .  A
C2555      C2560   1.403   1_556  A
C2555      H2562   1.084       .  S
C2556      C2557   1.416       .  A
C2557      C2558   1.414   1_556  A
C2557      N2564   1.437       .  S
C2558      C2559   1.405       .  A
C2558      H2563   1.084       .  S
C2559      C2560   1.411       .  A
C2560      N2561   1.439       .  S
N2561      H2565   1.046       .  S
N2561      H2566   1.046       .  S
N2564      H2567   1.046       .  S
N2564      H2568   1.046       .  S
C2569      C2570   1.403       .  A
C2569      C2574   1.407       .  A
C2569      H2576   1.084       .  S
C2570      C2571   1.420       .  A
C2571      C2572   1.406       .  A
C2571      N2578   1.439       .  S
C2572      C2573   1.402       .  A
C2572      H2577   1.084       .  S
C2573      C2574   1.408       .  A
C2574      N2575   1.432       .  S
N2575      H2579   1.045       .  S
N2575      H2580   1.045       .  S
N2578      H2581   1.044       .  S
N2578      H2582   1.046       .  S
C2583      C2584   1.408       .  A
C2583      C2588   1.410       .  A
C2583      H2590   1.084       .  S
C2584      C2585   1.415       .  A
C2585      C2586   1.405       .  A
C2585      N2592   1.439       .  S
C2586      C2587   1.404       .  A
C2586      H2591   1.081       .  S
C2587      C2588   1.405       .  A
C2588      N2589   1.431       .  S
N2589      H2593   1.045       .  S
N2589      H2594   1.044       .  S
N2592      H2595   1.044       .  S
N2592      H2596   1.045       .  S
C2597      C2598   1.405       .  A
C2597      C2602   1.401   1_556  A
C2597      H2604   1.084       .  S
C2598      C2599   1.414       .  A
C2599      C2600   1.414   1_556  A
C2599      N2606   1.437       .  S
C2600      C2601   1.407       .  A
C2600      H2605   1.083       .  S
C2601      C2602   1.414       .  A
C2602      N2603   1.439       .  S
N2603      H2607   1.046       .  S
N2603      H2608   1.046       .  S
N2606      H2609   1.046       .  S
N2606      H2610   1.046       .  S
C2611      C2612   1.405       .  A
C2611      C2616   1.406   1_545  A
C2611      H2618   1.084       .  S
C2612      C2613   1.417       .  A
C2613      C2614   1.396   1_545  A
C2613      N2620   1.434       .  S
C2614      C2615   1.402       .  A
C2614      H2619   1.084       .  S
C2615      C2616   1.416       .  A
C2616      N2617   1.432       .  S
N2617      H2621   1.045       .  S
N2617      H2622   1.046       .  S
N2620      H2623   1.045       .  S
N2620      H2624   1.044       .  S
C2625      C2626   1.400       .  A
C2625      C2630   1.395       .  A
C2625      H2632   1.084       .  S
C2626      C2627   1.411       .  A
C2627      C2628   1.400       .  A
C2627      N2634   1.433       .  S
C2628      C2629   1.404       .  A
C2628      H2633   1.084       .  S
C2629      C2630   1.413       .  A
C2630      N2631   1.432       .  S
N2631      H2635   1.044       .  S
N2631      H2636   1.045       .  S
N2634      H2637   1.045       .  S
N2634      H2638   1.045       .  S
C2639      C2640   1.406       .  A
C2639      C2644   1.409       .  A
C2639      H2646   1.084       .  S
C2640      C2641   1.415       .  A
C2641      C2642   1.404       .  A
C2641      N2648   1.438       .  S
C2642      C2643   1.403       .  A
C2642      H2647   1.082       .  S
C2643      C2644   1.407       .  A
C2644      N2645   1.431       .  S
N2645      H2649   1.045       .  S
N2645      H2650   1.045       .  S
N2648      H2651   1.044       .  S
N2648      H2652   1.046       .  S
C2653      C2654   1.405       .  A
C2653      C2658   1.411       .  A
C2653      H2660   1.084       .  S
C2654      C2655   1.408       .  A
C2655      C2656   1.408       .  A
C2655      N2662   1.436       .  S
C2656      C2657   1.405       .  A
C2656      H2661   1.084       .  S
C2657      C2658   1.410       .  A
C2658      N2659   1.436       .  S
N2659      H2663   1.046       .  S
N2659      H2664   1.045       .  S
N2662      H2665   1.045       .  S
N2662      H2666   1.046       .  S
C2667      C2668   1.406       .  A
C2667      C2672   1.412   1_565  A
C2667      H2674   1.084       .  S
C2668      C2669   1.409       .  A
C2669      C2670   1.402   1_565  A
C2669      N2676   1.439       .  S
C2670      C2671   1.405       .  A
C2670      H2675   1.084       .  S
C2671      C2672   1.412       .  A
C2672      N2673   1.437       .  S
N2673      H2677   1.046       .  S
N2673      H2678   1.046       .  S
N2676      H2679   1.046       .  S
N2676      H2680   1.046       .  S
C2681      C2682   1.404       .  A
C2681      C2686   1.406       .  A
C2681      H2688   1.084       .  S
C2682      C2683   1.406       .  A
C2683      C2684   1.411       .  A
C2683      N2690   1.431       .  S
C2684      C2685   1.408       .  A
C2684      H2689   1.084       .  S
C2685      C2686   1.408       .  A
C2686      N2687   1.437       .  S
N2687      H2691   1.046       .  S
N2687      H2692   1.045       .  S
N2690      H2693   1.046       .  S
N2690      H2694   1.045       .  S
C2695      C2696   1.405       .  A
C2695      C2700   1.404       .  A
C2695      H2702   1.084       .  S
C2696      C2697   1.413       .  A
C2697      C2698   1.402       .  A
C2697      N2704   1.437       .  S
C2698      C2699   1.404       .  A
C2698      H2703   1.084       .  S
C2699      C2700   1.411       .  A
C2700      N2701   1.432       .  S
N2701      H2705   1.045       .  S
N2701      H2706   1.045       .  S
N2704      H2707   1.044       .  S
N2704      H2708   1.046       .  S
C2709      C2710   1.402       .  A
C2709      C2714   1.398       .  A
C2709      H2716   1.084       .  S
C2710      C2711   1.413       .  A
C2711      C2712   1.408       .  A
C2711      N2718   1.437       .  S
C2712      C2713   1.405       .  A
C2712      H2717   1.083       .  S
C2713      C2714   1.409       .  A
C2714      N2715   1.432       .  S
N2715      H2719   1.045       .  S
N2715      H2720   1.046       .  S
N2718      H2721   1.045       .  S
N2718      H2722   1.046       .  S
C2723      C2724   1.403       .  A
C2723      C2728   1.406       .  A
C2723      H2730   1.084       .  S
C2724      C2725   1.412       .  A
C2725      C2726   1.397       .  A
C2725      N2732   1.433       .  S
C2726      C2727   1.402       .  A
C2726      H2731   1.084       .  S
C2727      C2728   1.410       .  A
C2728      N2729   1.437       .  S
N2729      H2733   1.046       .  S
N2729      H2734   1.045       .  S
N2732      H2735   1.045       .  S
N2732      H2736   1.044       .  S
C2737      C2738   1.408       .  A
C2737      C2742   1.415       .  A
C2737      H2744   1.083       .  S
C2738      C2739   1.419       .  A
C2739      C2740   1.391       .  A
C2739      N2746   1.434       .  S
C2740      C2741   1.403       .  A
C2740      H2745   1.084       .  S
C2741      C2742   1.416       .  A
C2742      N2743   1.437       .  S
N2743      H2747   1.046       .  S
N2743      H2748   1.045       .  S
N2746      H2749   1.045       .  S
N2746      H2750   1.044       .  S
C2751      C2752   1.407       .  A
C2751      C2756   1.404       .  A
C2751      H2758   1.084       .  S
C2752      C2753   1.418       .  A
C2753      C2754   1.398       .  A
C2753      N2760   1.434       .  S
C2754      C2755   1.402       .  A
C2754      H2759   1.084       .  S
C2755      C2756   1.414       .  A
C2756      N2757   1.432       .  S
N2757      H2761   1.045       .  S
N2757      H2762   1.045       .  S
N2760      H2763   1.046       .  S
N2760      H2764   1.044       .  S
C2765      C2766   1.404       .  A
C2765      C2770   1.402       .  A
C2765      H2772   1.084       .  S
C2766      C2767   1.415       .  A
C2767      C2768   1.413       .  A
C2767      N2774   1.437       .  S
C2768      C2769   1.404       .  A
C2768      H2773   1.084       .  S
C2769      C2770   1.411       .  A
C2770      N2771   1.439       .  S
N2771      H2775   1.046       .  S
N2771      H2776   1.046       .  S
N2774      H2777   1.046       .  S
N2774      H2778   1.046       .  S
C2779      C2780   1.403       .  A
C2779      C2784   1.400       .  A
C2779      H2786   1.084       .  S
C2780      C2781   1.415       .  A
C2781      C2782   1.414       .  A
C2781      N2788   1.437       .  S
C2782      C2783   1.406       .  A
C2782      H2787   1.083       .  S
C2783      C2784   1.411       .  A
C2784      N2785   1.439       .  S
N2785      H2789   1.046       .  S
N2785      H2790   1.046       .  S
N2788      H2791   1.046       .  S
N2788      H2792   1.046       .  S
C2793      C2794   1.402       .  A
C2793      C2798   1.407       .  A
C2793      H2800   1.084       .  S
C2794      C2795   1.412       .  A
C2795      C2796   1.403       .  A
C2795      N2802   1.437       .  S
C2796      C2797   1.405       .  A
C2796      H2801   1.084       .  S
C2797      C2798   1.418       .  A
C2798      N2799   1.438       .  S
N2799      H2803   1.046       .  S
N2799      H2804   1.046       .  S
N2802      H2805   1.045       .  S
N2802      H2806   1.045       .  S
C2807      C2808   1.405       .  A
C2807      C2812   1.399       .  A
C2807      H2814   1.084       .  S
C2808      C2809   1.415       .  A
C2809      C2810   1.414       .  A
C2809      N2816   1.437       .  S
C2810      C2811   1.406       .  A
C2810      H2815   1.083       .  S
C2811      C2812   1.407       .  A
C2812      N2813   1.433       .  S
N2813      H2817   1.046       .  S
N2813      H2818   1.046       .  S
N2816      H2819   1.046       .  S
N2816      H2820   1.046       .  S
C2821      C2822   1.406       .  A
C2821      C2826   1.414       .  A
C2821      H2828   1.083       .  S
C2822      C2823   1.408       .  A
C2823      C2824   1.395       .  A
C2823      N2830   1.434       .  S
C2824      C2825   1.404       .  A
C2824      H2829   1.084       .  S
C2825      C2826   1.416       .  A
C2826      N2827   1.437       .  S
N2827      H2831   1.046       .  S
N2827      H2832   1.045       .  S
N2830      H2833   1.046       .  S
N2830      H2834   1.046       .  S
C2835      C2836   1.400       .  A
C2835      C2840   1.393       .  A
C2835      H2842   1.085       .  S
C2836      C2837   1.415       .  A
C2837      C2838   1.413       .  A
C2837      N2844   1.437       .  S
C2838      C2839   1.405       .  A
C2838      H2843   1.083       .  S
C2839      C2840   1.411       .  A
C2840      N2841   1.434       .  S
N2841      H2845   1.045       .  S
N2841      H2846   1.046       .  S
N2844      H2847   1.045       .  S
N2844      H2848   1.046       .  S
C2849      C2850   1.403       .  A
C2849      C2854   1.401       .  A
C2849      H2856   1.084       .  S
C2850      C2851   1.415       .  A
C2851      C2852   1.409       .  A
C2851      N2858   1.438       .  S
C2852      C2853   1.402       .  A
C2852      H2857   1.084       .  S
C2853      C2854   1.408       .  A
C2854      N2855   1.437       .  S
N2855      H2859   1.046       .  S
N2855      H2860   1.045       .  S
N2858      H2861   1.046       .  S
N2858      H2862   1.046       .  S
C2863      C2864   1.402       .  A
C2863      C2868   1.396   1_455  A
C2863      H2870   1.084       .  S
C2864      C2865   1.415       .  A
C2865      C2866   1.405   1_455  A
C2865      N2872   1.432       .  S
C2866      C2867   1.405       .  A
C2866      H2871   1.084       .  S
C2867      C2868   1.415       .  A
C2868      N2869   1.434       .  S
N2869      H2873   1.044       .  S
N2869      H2874   1.046       .  S
N2872      H2875   1.046       .  S
N2872      H2876   1.045       .  S
C2877      C2878   1.404       .  A
C2877      C2882   1.403   1_565  A
C2877      H2884   1.084       .  S
C2878      C2879   1.416       .  A
C2879      C2880   1.413   1_565  A
C2879      N2886   1.437       .  S
C2880      C2881   1.404       .  A
C2880      H2885   1.083       .  S
C2881      C2882   1.414       .  A
C2882      N2883   1.439       .  S
N2883      H2887   1.046       .  S
N2883      H2888   1.046       .  S
N2886      H2889   1.046       .  S
N2886      H2890   1.046       .  S
C2891      C2892   1.405       .  A
C2891      C2896   1.405       .  A
C2891      H2898   1.084       .  S
C2892      C2893   1.407       .  A
C2893      C2894   1.409       .  A
C2893      N2900   1.432       .  S
C2894      C2895   1.406       .  A
C2894      H2899   1.084       .  S
C2895      C2896   1.408       .  A
C2896      N2897   1.438       .  S
N2897      H2901   1.046       .  S
N2897      H2902   1.045       .  S
N2900      H2903   1.046       .  S
N2900      H2904   1.045       .  S
C2905      C2906   1.407       .  A
C2905      C2910   1.407       .  A
C2905      H2912   1.084       .  S
C2906      C2907   1.407       .  A
C2907      C2908   1.408       .  A
C2907      N2914   1.437       .  S
C2908      C2909   1.406       .  A
C2908      H2913   1.084       .  S
C2909      C2910   1.410       .  A
C2910      N2911   1.432       .  S
N2911      H2915   1.045       .  S
N2911      H2916   1.045       .  S
N2914      H2917   1.045       .  S
N2914      H2918   1.046       .  S
C2919      C2920   1.404       .  A
C2919      C2924   1.399   1_554  A
C2919      H2926   1.084       .  S
C2920      C2921   1.414       .  A
C2921      C2922   1.417   1_554  A
C2921      N2928   1.437       .  S
C2922      C2923   1.410       .  A
C2922      H2927   1.083       .  S
C2923      C2924   1.412       .  A
C2924      N2925   1.433       .  S
N2925      H2929   1.046       .  S
N2925      H2930   1.046       .  S
N2928      H2931   1.046       .  S
N2928      H2932   1.046       .  S
C2933      C2934   1.408       .  A
C2933      C2938   1.416   1_545  A
C2933      H2940   1.084       .  S
C2934      C2935   1.417       .  A
C2935      C2936   1.393   1_545  A
C2935      N2942   1.434       .  S
C2936      C2937   1.403       .  A
C2936      H2941   1.085       .  S
C2937      C2938   1.414       .  A
C2938      N2939   1.437       .  S
N2939      H2943   1.046       .  S
N2939      H2944   1.045       .  S
N2942      H2945   1.046       .  S
N2942      H2946   1.044       .  S
C2947      C2948   1.402       .  A
C2947      C2952   1.410       .  A
C2947      H2954   1.084       .  S
C2948      C2949   1.409       .  A
C2949      C2950   1.408       .  A
C2949      N2956   1.430       .  S
C2950      C2951   1.400       .  A
C2950      H2955   1.084       .  S
C2951      C2952   1.413       .  A
C2952      N2953   1.437       .  S
N2953      H2957   1.046       .  S
N2953      H2958   1.046       .  S
N2956      H2959   1.042       .  S
N2956      H2960   1.045       .  S
C2961      C2962   1.406       .  A
C2961      C2966   1.408       .  A
C2961      H2968   1.084       .  S
C2962      C2963   1.407       .  A
C2963      C2964   1.411       .  A
C2963      N2970   1.432       .  S
C2964      C2965   1.407       .  A
C2964      H2969   1.084       .  S
C2965      C2966   1.408       .  A
C2966      N2967   1.438       .  S
N2967      H2971   1.046       .  S
N2967      H2972   1.045       .  S
N2970      H2973   1.046       .  S
N2970      H2974   1.045       .  S
C2975      C2976   1.405       .  A
C2975      C2980   1.411       .  A
C2975      H2982   1.084       .  S
C2976      C2977   1.408       .  A
C2977      C2978   1.398       .  A
C2977      N2984   1.434       .  S
C2978      C2979   1.400       .  A
C2978      H2983   1.084       .  S
C2979      C2980   1.413       .  A
C2980      N2981   1.437       .  S
N2981      H2985   1.046       .  S
N2981      H2986   1.045       .  S
N2984      H2987   1.045       .  S
N2984      H2988   1.046       .  S
C2989      C2990   1.408       .  A
C2989      C2994   1.408   1_556  A
C2989      H2996   1.083       .  S
C2990      C2991   1.416       .  A
C2991      C2992   1.400   1_556  A
C2991      N2998   1.434       .  S
C2992      C2993   1.404       .  A
C2992      H2997   1.084       .  S
C2993      C2994   1.418       .  A
C2994      N2995   1.432       .  S
N2995      H2999   1.046       .  S
N2995      H3000   1.045       .  S
N2998      H3001   1.046       .  S
N2998      H3002   1.046       .  S
C3003      C3004   1.401       .  A
C3003      C3008   1.395   1_655  A
C3003      H3010   1.084       .  S
C3004      C3005   1.412       .  A
C3005      C3006   1.410   1_655  A
C3005      N3012   1.437       .  S
C3006      C3007   1.405       .  A
C3006      H3011   1.084       .  S
C3007      C3008   1.417       .  A
C3008      N3009   1.434       .  S
N3009      H3013   1.044       .  S
N3009      H3014   1.046       .  S
N3012      H3015   1.045       .  S
N3012      H3016   1.046       .  S
C3017      C3018   1.407       .  A
C3017      C3022   1.412       .  A
C3017      H3024   1.083       .  S
C3018      C3019   1.411       .  A
C3019      C3020   1.395       .  A
C3019      N3026   1.432       .  S
C3020      C3021   1.401       .  A
C3020      H3025   1.085       .  S
C3021      C3022   1.413       .  A
C3022      N3023   1.438       .  S
N3023      H3027   1.046       .  S
N3023      H3028   1.046       .  S
N3026      H3029   1.045       .  S
N3026      H3030   1.046       .  S
C3031      C3032   1.406       .  A
C3031      C3036   1.404       .  A
C3031      H3038   1.084       .  S
C3032      C3033   1.410       .  A
C3033      C3034   1.396       .  A
C3033      N3040   1.433       .  S
C3034      C3035   1.403       .  A
C3034      H3039   1.085       .  S
C3035      C3036   1.408       .  A
C3036      N3037   1.432       .  S
N3037      H3041   1.046       .  S
N3037      H3042   1.045       .  S
N3040      H3043   1.046       .  S
N3040      H3044   1.044       .  S
C3045      C3046   1.406       .  A
C3045      C3050   1.409       .  A
C3045      H3052   1.083       .  S
C3046      C3047   1.405       .  A
C3047      C3048   1.410       .  A
C3047      N3054   1.432       .  S
C3048      C3049   1.408       .  A
C3048      H3053   1.084       .  S
C3049      C3050   1.407       .  A
C3050      N3051   1.437       .  S
N3051      H3055   1.045       .  S
N3051      H3056   1.045       .  S
N3054      H3057   1.043       .  S
N3054      H3058   1.045       .  S
C3059      C3060   1.399       .  A
C3059      C3064   1.402       .  A
C3059      H3066   1.084       .  S
C3060      C3061   1.407       .  A
C3061      C3062   1.406       .  A
C3061      N3068   1.432       .  S
C3062      C3063   1.403       .  A
C3062      H3067   1.084       .  S
C3063      C3064   1.417       .  A
C3064      N3065   1.438       .  S
N3065      H3069   1.046       .  S
N3065      H3070   1.045       .  S
N3068      H3071   1.043       .  S
N3068      H3072   1.045       .  S
