geometry optimzed in LAMMPS
_audit_creation_date              2020-11-30 
_audit_creation_method            'lammps2cif' 
_symmetry_space_group_name_H-M    'P1' 
_symmetry_Int_Tables_number       1 
_symmetry_cell_setting            triclinic 
loop_ 
_symmetry_equiv_pos_as_xyz 
  x,y,z 
_cell_length_a                    99.17903876 
_cell_length_b                    99.75170581350365 
_cell_length_c                    39.0477009924952 
_cell_angle_alpha                 88.39204667307406 
_cell_angle_beta                  91.04977601608607 
_cell_angle_gamma                 121.4223534608934 
loop_ 
_atom_site_label 
_atom_site_type_symbol 
_atom_site_fract_x 
_atom_site_fract_y 
_atom_site_fract_z 
_atom_site_charge 
C1          C  0.52318836  0.59999695  0.63217793    -0.02400
C2          C  0.52593145  0.58938746  0.37288284    -0.02400
C3          C  0.57913054  0.53830402  0.64414794    -0.02400
C4          C  0.58326271  0.52710954  0.38536448    -0.02400
C5          C  0.42382063  0.49098481  0.66120664    -0.02400
C6          C  0.41818532  0.48289041  0.39850506    -0.02400
C7          C  0.47829974  0.42838400  0.66228889    -0.02400
C8          C  0.47502684  0.42152226  0.40384751    -0.02400
C9          C  0.92579021  0.52298736  0.65682221    -0.02400
C10         C  0.94187710  0.53229686  0.40120360    -0.02400
C11         C  0.04510463  0.57145873  0.66897967    -0.02400
C12         C  0.05968066  0.58831683  0.40523090    -0.02400
C13         C  0.94322940  0.42956524  0.68376743    -0.02400
C14         C  0.93798705  0.42560059  0.42253669    -0.02400
C15         C  0.05685964  0.47474304  0.65404401    -0.02400
C16         C  0.05863088  0.48362645  0.39747519    -0.02400
In17       In  0.48394370  0.67082182  0.20581554     1.36900
C18         C  0.45707014  0.64433543  0.22305357     0.77700
O19         O  0.47292303  0.66796611  0.15407266    -0.60800
O20         O  0.49783575  0.67792128  0.15705738    -0.51700
C21         C  0.48702723  0.69867651  0.21771938     0.70300
O22         O  0.47434541  0.68568778  0.22270028    -0.46500
C23         C  0.50293282  0.66322137  0.23862820     0.75000
O24         O  0.46377590  0.65597089  0.24256752    -0.58400
O25         O  0.49854373  0.65956375  0.20811595    -0.48500
O26         O  0.46392386  0.64652807  0.19482591    -0.54800
C27         C  0.48579297  0.67344788  0.13830722     0.85200
O28         O  0.49826137  0.69729023  0.20803363    -0.56700
O29         O  0.49881570  0.67201872  0.25126936    -0.60000
In30       In  0.48462078  0.82441436  0.19721276     1.36900
C31         C  0.45668749  0.82186398  0.20716946     0.77700
O32         O  0.49553219  0.83589034  0.24725232    -0.60800
O33         O  0.50110464  0.85048313  0.20303473    -0.51700
C34         C  0.49052438  0.80145619  0.21098622     0.70300
O35         O  0.47774028  0.80048253  0.21864290    -0.46500
C36         C  0.48562407  0.82446303  0.12939748     0.75000
O37         O  0.46053422  0.81297755  0.22224516    -0.58400
O38         O  0.49706515  0.83446334  0.14716252    -0.48500
O39         O  0.46719423  0.83206459  0.18766190    -0.54800
C40         C  0.50220538  0.84971299  0.23505066     0.85200
O41         O  0.50061250  0.81447882  0.19747380    -0.56700
O42         O  0.47395042  0.81422804  0.14652859    -0.60000
In43       In  0.47961217  0.67161655  0.81302054     1.36900
C44         C  0.45247259  0.64455092  0.80555876     0.77700
O45         O  0.48827705  0.66788347  0.76301055    -0.60800
O46         O  0.49928894  0.66687546  0.80887329    -0.51700
C47         C  0.48096285  0.69858948  0.79720617     0.70300
O48         O  0.46816314  0.68569488  0.80119552    -0.46500
C49         C  0.48362200  0.67483002  0.88073402     0.75000
O50         O  0.46293734  0.64640388  0.82701346    -0.58400
O51         O  0.49500018  0.68160349  0.86009757    -0.48500
O52         O  0.45606863  0.65650327  0.78688427    -0.54800
C53         C  0.49843257  0.66547879  0.77691240     0.85200
O54         O  0.49304584  0.69755925  0.80020829    -0.56700
O55         O  0.47040059  0.66658617  0.86645369    -0.60000
In56       In  0.47282278  0.81922120  0.80566067     1.36900
C57         C  0.44472737  0.81637184  0.79498611     0.77700
O58         O  0.46567878  0.80930124  0.85902281    -0.60800
O59         O  0.48863739  0.82937107  0.85120286    -0.51700
C60         C  0.47927888  0.79756476  0.78767451     0.70300
O61         O  0.46541933  0.79449107  0.79272022    -0.46500
C62         C  0.48847626  0.84689525  0.77410484     0.75000
O63         O  0.45132637  0.81290543  0.77251770    -0.58400
O64         O  0.48726180  0.84530776  0.80617759    -0.48500
O65         O  0.45218259  0.82059079  0.82288557    -0.54800
C66         C  0.47854026  0.81967514  0.87228012     0.85200
O67         O  0.48978763  0.81185785  0.79043052    -0.56700
O68         O  0.48273763  0.83424371  0.75808841    -0.60000
In69       In  0.18124677  0.52229428  0.22337714     1.36900
C70         C  0.18756922  0.55066176  0.24132253     0.77700
O71         O  0.18562525  0.53254777  0.16996089    -0.60800
O72         O  0.17513933  0.50793490  0.17576625    -0.51700
C73         C  0.20532884  0.51771620  0.23525591     0.70300
O74         O  0.20685198  0.53104991  0.23418759    -0.46500
C75         C  0.15252171  0.50546829  0.25203252     0.75000
O76         O  0.18815671  0.54118348  0.26253298    -0.58400
O77         O  0.15474087  0.50887947  0.22055701    -0.48500
O78         O  0.18392956  0.54563631  0.21125875    -0.54800
C79         C  0.18020352  0.51963821  0.15535289     0.85200
O80         O  0.19121482  0.50652357  0.23268665    -0.56700
O81         O  0.16502688  0.50957253  0.26871225    -0.60000
In82       In  0.33046063  0.51173294  0.21807765     1.36900
C83         C  0.35543141  0.54013857  0.23074210     0.77700
O84         O  0.32791647  0.49605183  0.26406776    -0.60800
O85         O  0.34514339  0.50067087  0.22727906    -0.51700
C86         C  0.30263709  0.50934310  0.23046842     0.70300
O87         O  0.31571343  0.52211036  0.23049348    -0.46500
C88         C  0.32851579  0.50755662  0.15036263     0.75000
O89         O  0.34498310  0.53231604  0.25305858    -0.58400
O90         O  0.32615016  0.49676022  0.17159700    -0.48500
O91         O  0.35316483  0.53330150  0.20279484    -0.54800
C92         C  0.33906914  0.49415267  0.25539322     0.85200
O93         O  0.30379317  0.49755657  0.22499486    -0.56700
O94         O  0.33097847  0.51992618  0.16394283    -0.60000
In95       In  0.17995360  0.52053204  0.82997923     1.36900
C96         C  0.18226522  0.54801587  0.81327219     0.77700
O97         O  0.16724211  0.50425750  0.78616541    -0.60800
O98         O  0.15372038  0.50772028  0.82210635    -0.51700
C99         C  0.20453667  0.51733177  0.81770393     0.70300
O100        O  0.20518335  0.53027227  0.81439161    -0.46500
C101        C  0.17813224  0.51599078  0.89767616     0.75000
O102        O  0.18313968  0.53946041  0.79139140    -0.58400
O103        O  0.16703767  0.50693844  0.87793537    -0.48500
O104        O  0.18093790  0.54278246  0.84350513    -0.54800
C105        C  0.15370292  0.50141039  0.79479463     0.85200
O106        O  0.19109174  0.50586760  0.82577760    -0.56700
O107        O  0.19009813  0.52703819  0.88285224    -0.60000
In108      In  0.32841588  0.51004437  0.82473490     1.36900
C109        C  0.35399731  0.53757340  0.81016646     0.77700
O110        O  0.33268238  0.51977890  0.87692696    -0.60800
O111        O  0.32121214  0.49498405  0.87303955    -0.51700
C112        C  0.30122423  0.50867344  0.81273578     0.70300
O113        O  0.31431899  0.52134190  0.81475692    -0.46500
C114        C  0.33690288  0.49397644  0.78684539     0.75000
O115        O  0.34151996  0.53208814  0.79250684    -0.58400
O116        O  0.33933183  0.49534151  0.81864963    -0.48500
O117        O  0.35338614  0.52878308  0.83463957    -0.54800
C118        C  0.32667733  0.50668296  0.89233860     0.85200
O119        O  0.30201452  0.49645352  0.81592317    -0.56700
O120        O  0.32832200  0.49896913  0.77542433    -0.60000
In121      In  0.33158850  0.82668605  0.17908831     1.36900
C122        C  0.35530243  0.82152672  0.18840058     0.77700
O123        O  0.33392152  0.82485072  0.12293066    -0.60800
O124        O  0.32136259  0.83548215  0.13865167    -0.51700
C125        C  0.30301775  0.80147132  0.19201073     0.70300
O126        O  0.31267373  0.80162633  0.17133201    -0.46500
C127        C  0.34354224  0.85242971  0.21701397     0.75000
O128        O  0.34241831  0.81381810  0.20434006    -0.58400
O129        O  0.34190897  0.85266423  0.18490719    -0.48500
O130        O  0.35590885  0.83168021  0.16750764    -0.54800
C131        C  0.32609478  0.83106422  0.11398596     0.85200
O132        O  0.30811936  0.81436503  0.20667860    -0.56700
O133        O  0.33791194  0.83884309  0.22992459    -0.60000
In134      In  0.17678300  0.67012749  0.22105404     1.36900
C135        C  0.18084165  0.64638639  0.23761189     0.77700
O136        O  0.16962831  0.67140553  0.27447176    -0.60800
O137        O  0.15161292  0.66045863  0.23680285    -0.51700
C138        C  0.19973447  0.70004600  0.22376150     0.70300
O139        O  0.20155145  0.68893985  0.23359394    -0.46500
C140        C  0.17356447  0.66882546  0.15274816     0.75000
O141        O  0.19192500  0.66055659  0.23908657    -0.58400
O142        O  0.16608544  0.67280778  0.17160617    -0.48500
O143        O  0.16772591  0.64452288  0.22820226    -0.54800
C144        C  0.15503839  0.66373003  0.26792841     0.85200
O145        O  0.18590214  0.69590398  0.21433437    -0.56700
O146        O  0.18196081  0.66479844  0.16915020    -0.60000
In147      In  0.32405129  0.82959341  0.79875075     1.36900
C148        C  0.34826125  0.82540799  0.79115570     0.77700
O149        O  0.32737771  0.84404808  0.75022714    -0.60800
O150        O  0.34011363  0.85573339  0.79474874    -0.51700
C151        C  0.29620596  0.80362342  0.78529199     0.70300
O152        O  0.30826161  0.80345215  0.79514187    -0.46500
C153        C  0.31684407  0.83214493  0.86252155     0.75000
O154        O  0.34554547  0.82997122  0.81857356    -0.58400
O155        O  0.31424825  0.83881390  0.83753580    -0.48500
O156        O  0.33824513  0.82252452  0.76769030    -0.54800
C157        C  0.33766672  0.85686863  0.76330266     0.85200
O158        O  0.29861724  0.81725356  0.77994875    -0.56700
O159        O  0.32339056  0.82471070  0.85474462    -0.60000
In160      In  0.17380540  0.66775908  0.82561841     1.36900
C161        C  0.18073531  0.64666540  0.80637109     0.77700
O162        O  0.18142245  0.66599873  0.87885389    -0.60800
O163        O  0.16453842  0.67285564  0.87316175    -0.51700
C164        C  0.19716068  0.69713561  0.81098411     0.70300
O165        O  0.19916132  0.68576779  0.81549733    -0.46500
C166        C  0.14503324  0.65290280  0.79635975     0.75000
O167        O  0.18081604  0.65661910  0.78562283    -0.58400
O168        O  0.14759403  0.65076930  0.82714864    -0.48500
O169        O  0.17736926  0.64768607  0.83676159    -0.54800
C170        C  0.17256934  0.66961792  0.89345888     0.85200
O171        O  0.18292260  0.69346338  0.81256816    -0.56700
O172        O  0.15708253  0.66371927  0.78110486    -0.60000
In173      In  0.50839861  0.33818933  0.22130150     1.36900
C174        C  0.53707558  0.36404201  0.22664779     0.77700
O175        O  0.51647942  0.33681784  0.16889260    -0.60800
O176        O  0.49378210  0.33356256  0.17325711    -0.51700
C177        C  0.50266438  0.30986179  0.24088710     0.70300
O178        O  0.51557492  0.32238463  0.24643873    -0.46500
C179        C  0.49361451  0.34775667  0.26114761     0.75000
O180        O  0.53440056  0.35043576  0.23340969    -0.58400
O181        O  0.49225596  0.34741136  0.22900478    -0.48500
O182        O  0.52510128  0.36426987  0.21640508    -0.54800
C183        C  0.50404887  0.33415583  0.15368708     0.85200
O184        O  0.49211218  0.31190090  0.22782654    -0.56700
O185        O  0.50125632  0.34176812  0.27308456    -0.60000
In186      In  0.51526990  0.19036915  0.22256787     1.36900
C187        C  0.54278239  0.19321638  0.23813020     0.77700
O188        O  0.50143844  0.17490406  0.26791116    -0.60800
O189        O  0.50271209  0.16402227  0.22340224    -0.51700
C190        C  0.51235306  0.21469792  0.23825315     0.70300
O191        O  0.52533413  0.21536475  0.23815089    -0.46500
C192        C  0.51110076  0.19028942  0.15527060     0.75000
O193        O  0.53605531  0.18854785  0.20956372    -0.58400
O194        O  0.50005122  0.18147731  0.17557985    -0.48500
O195        O  0.53577003  0.19710886  0.25854778    -0.54800
C196        C  0.49843107  0.16233313  0.25410155     0.85200
O197        O  0.50060252  0.20124646  0.23151491    -0.56700
O198        O  0.52406730  0.19958585  0.16971970    -0.60000
In199      In  0.49719218  0.33130031  0.82840130     1.36900
C200        C  0.52463062  0.35792065  0.81743813     0.77700
O201        O  0.48858269  0.33753216  0.77986343    -0.60800
O202        O  0.47870410  0.33784270  0.82711743    -0.51700
C203        C  0.49333189  0.30375609  0.81085429     0.70300
O204        O  0.50657749  0.31628011  0.81216351    -0.46500
C205        C  0.49507422  0.32733879  0.89650243     0.75000
O206        O  0.52053071  0.34558647  0.80125542    -0.58400
O207        O  0.48331215  0.32387871  0.87760784    -0.48500
O208        O  0.51470417  0.35664191  0.83901561    -0.54800
C209        C  0.47990581  0.34108612  0.79554337     0.85200
O210        O  0.48179584  0.30540167  0.81644616    -0.56700
O211        O  0.50781465  0.33244436  0.88049576    -0.60000
In212      In  0.51301392  0.18799754  0.83270531     1.36900
C213        C  0.54098160  0.19017340  0.83729203     0.77700
O214        O  0.51940340  0.19692881  0.88564648    -0.60800
O215        O  0.49724992  0.17586300  0.87821463    -0.51700
C216        C  0.50688837  0.21059418  0.81578089     0.70300
O217        O  0.52029307  0.21222279  0.81217958    -0.46500
C218        C  0.50096464  0.16494076  0.78755568     0.75000
O219        O  0.53939864  0.20093711  0.82385237    -0.58400
O220        O  0.49564870  0.16297776  0.81753735    -0.48500
O221        O  0.52833273  0.17862558  0.84886903    -0.54800
C222        C  0.50684484  0.18597651  0.89894253     0.85200
O223        O  0.49637729  0.19698892  0.82561722    -0.56700
O224        O  0.51112723  0.17898999  0.77964024    -0.60000
In225      In  0.82395378  0.34316925  0.22570691     1.36900
C226        C  0.82255753  0.36887301  0.23308481     0.77700
O227        O  0.83584562  0.34698247  0.27741950    -0.60800
O228        O  0.84975268  0.35208973  0.23294671    -0.51700
C229        C  0.79793113  0.31594890  0.24195705     0.70300
O230        O  0.79777958  0.32799622  0.23203285    -0.46500
C231        C  0.82532783  0.33854618  0.15891597     0.75000
O232        O  0.81283061  0.35589541  0.24736652    -0.58400
O233        O  0.82864984  0.33159047  0.18191795    -0.48500
O234        O  0.83294565  0.36858784  0.21557689    -0.54800
C235        C  0.84945629  0.35258357  0.26508903     0.85200
O236        O  0.81156842  0.31800836  0.24508972    -0.56700
O237        O  0.82129952  0.34765617  0.17006751    -0.60000
In238      In  0.66650326  0.18697392  0.25050134     1.36900
C239        C  0.64211728  0.19080809  0.25720753     0.77700
O240        O  0.67632269  0.17988707  0.20740550    -0.60800
O241        O  0.66272313  0.19013139  0.19509767    -0.51700
C242        C  0.69491427  0.21255942  0.26236292     0.70300
O243        O  0.68303680  0.21317268  0.25297175    -0.46500
C244        C  0.65513370  0.16036875  0.28812925     0.75000
O245        O  0.65361049  0.19663896  0.27796574    -0.58400
O246        O  0.65557311  0.16083296  0.25592069    -0.48500
O247        O  0.64305826  0.18283999  0.23397177    -0.54800
C248        C  0.67040010  0.18432265  0.18415271     0.85200
O249        O  0.69209560  0.19879318  0.26742435    -0.56700
O250        O  0.66146511  0.17370112  0.30145018    -0.60000
In251      In  0.80993590  0.34153456  0.83756960     1.36900
C252        C  0.80112232  0.36236492  0.82618909     0.77700
O253        O  0.81252258  0.34866191  0.89223252    -0.60800
O254        O  0.81343946  0.32842274  0.88147801    -0.51700
C255        C  0.78646096  0.31259007  0.82199063     0.70300
O256        O  0.78412513  0.32299628  0.83267542    -0.46500
C257        C  0.83866125  0.35616552  0.80847782     0.75000
O258        O  0.80353966  0.35573706  0.80202320    -0.58400
O259        O  0.83654036  0.35494949  0.84035868    -0.48500
O260        O  0.80256807  0.35780789  0.85564136    -0.54800
C261        C  0.81391670  0.33753591  0.90391005     0.85200
O262        O  0.80080008  0.31722712  0.81742323    -0.56700
O263        O  0.82605023  0.34931278  0.79135369    -0.60000
In264      In  0.66257679  0.17810111  0.86116734     1.36900
C265        C  0.63822876  0.18189062  0.84790836     0.77700
O266        O  0.65940597  0.16171994  0.81868971    -0.60800
O267        O  0.65001706  0.15184804  0.86741278    -0.51700
C268        C  0.68928517  0.20459981  0.84173813     0.70300
O269        O  0.67622566  0.20358034  0.84519246    -0.46500
C270        C  0.66683901  0.17614901  0.92827644     0.75000
O271        O  0.64387771  0.17730924  0.82547498    -0.58400
O272        O  0.67544937  0.17508034  0.90643150    -0.48500
O273        O  0.64511787  0.18454283  0.87653996    -0.54800
C274        C  0.65157121  0.14935379  0.83686337     0.85200
O275        O  0.68863216  0.19170533  0.84600109    -0.56700
O276        O  0.65639898  0.17836413  0.91554273    -0.60000
In277      In  0.82374346  0.49544231  0.20530615     1.36900
C278        C  0.82100640  0.46826611  0.22233324     0.77700
O279        O  0.81799813  0.48741649  0.15152636    -0.60800
O280        O  0.83218658  0.51194479  0.15927321    -0.51700
C281        C  0.79789990  0.49677523  0.21487306     0.70300
O282        O  0.79749024  0.48431584  0.20787033    -0.46500
C283        C  0.84968908  0.51201500  0.24362005     0.75000
O284        O  0.81346743  0.47326449  0.23774540    -0.58400
O285        O  0.85009273  0.50864931  0.21308392    -0.48500
O286        O  0.82957904  0.47696227  0.19812343    -0.54800
C287        C  0.82516767  0.50098781  0.13815988     0.85200
O288        O  0.81165173  0.50859713  0.21865316    -0.56700
O289        O  0.83601079  0.50814302  0.25361212    -0.60000
In290      In  0.66697007  0.49189085  0.21235052     1.36900
C291        C  0.64245904  0.46373246  0.22779181     0.77700
O292        O  0.66194822  0.50057695  0.26075574    -0.60800
O293        O  0.65957063  0.50970853  0.21314354    -0.51700
C294        C  0.69477107  0.49402464  0.22218927     0.70300
O295        O  0.68286932  0.48221572  0.20963467    -0.46500
C296        C  0.66855893  0.49697669  0.14517400     0.75000
O297        O  0.65488766  0.46992715  0.24579036    -0.58400
O298        O  0.67760691  0.50757664  0.16567990    -0.48500
O299        O  0.64268260  0.47184291  0.20230799    -0.54800
C300        C  0.65766899  0.50896844  0.24501706     0.85200
O301        O  0.69233273  0.50465678  0.23097671    -0.56700
O302        O  0.65887615  0.48395923  0.15913396    -0.60000
In303      In  0.80015367  0.48667020  0.82146358     1.36900
C304        C  0.79278405  0.45741130  0.81086034     0.77700
O305        O  0.81621076  0.49720423  0.77537911    -0.60800
O306        O  0.82640625  0.49736193  0.82333394    -0.51700
C307        C  0.77638482  0.49090661  0.80393004     0.70300
O308        O  0.77450709  0.47774154  0.81184171    -0.46500
C309        C  0.80429986  0.49493908  0.88668079     0.75000
O310        O  0.79392776  0.46658795  0.78666132    -0.58400
O311        O  0.80934259  0.50490041  0.86225933    -0.48500
O312        O  0.79490603  0.46309914  0.84029137    -0.54800
C313        C  0.82861919  0.50036847  0.79190741     0.85200
O314        O  0.79062689  0.50197690  0.80351508    -0.56700
O315        O  0.79674681  0.48081866  0.87755095    -0.60000
In316      In  0.65253199  0.49032078  0.82378641     1.36900
C317        C  0.62669672  0.46211898  0.81816262     0.77700
O318        O  0.65095033  0.48257748  0.87856339    -0.60800
O319        O  0.66639287  0.50668225  0.86668185    -0.51700
C320        C  0.67892408  0.49461229  0.79717380     0.70300
O321        O  0.66898476  0.48210497  0.81254093    -0.46500
C322        C  0.64143403  0.50619215  0.79164338     0.75000
O323        O  0.63957239  0.46568904  0.80424851    -0.58400
O324        O  0.64485266  0.50782082  0.82310213    -0.48500
O325        O  0.62712126  0.47304813  0.83451511    -0.54800
C326        C  0.66078473  0.49599278  0.88949555     0.85200
O327        O  0.67508587  0.50480864  0.79429275    -0.56700
O328        O  0.64453225  0.49715357  0.77637622    -0.60000
C329        C  0.51532920  0.94537588  0.63473050    -0.02400
C330        C  0.52643846  0.94429477  0.37233831    -0.02400
C331        C  0.58135092  0.06178037  0.68443372    -0.02400
C332        C  0.58200807  0.06070112  0.42710558    -0.02400
C333        C  0.41638968  0.95747306  0.63162754    -0.02400
C334        C  0.42075235  0.94046815  0.37381552    -0.02400
C335        C  0.48503390  0.07442746  0.63816283    -0.02400
C336        C  0.47960332  0.06307338  0.37843830    -0.02400
C337        C  0.47577267  0.06735086  0.41535025     0.01400
C338        C  0.48502149  0.08274926  0.42885422     0.04300
C339        C  0.48849317  0.08488747  0.46393411    -0.11800
C340        C  0.47956270  0.07255107  0.48721203     0.23500
C341        C  0.46694519  0.05834739  0.47503765    -0.12400
C342        C  0.46409422  0.05612186  0.43944983     0.05000
C343        C  0.48210128  0.07525366  0.52458011     0.27400
C344        C  0.49581753  0.07737719  0.54002991    -0.13100
C345        C  0.49887437  0.08108051  0.57502908     0.05500
C346        C  0.48620989  0.07843639  0.59771523    -0.09000
C347        C  0.47256355  0.07714131  0.58011985     0.06300
C348        C  0.47126072  0.07665875  0.54408913    -0.13400
Br349      Br  0.45427669  0.04145708  0.50745855    -0.05500
Br350      Br  0.48388643  0.10002336  0.40933168     0.00100
Br351      Br  0.52095250  0.09060892  0.58532913     0.00600
Br352      Br  0.45464684  0.07810989  0.52054903    -0.03800
Br353      Br  0.44338833  0.03823038  0.42781032     0.00700
Br354      Br  0.50418817  0.10549679  0.48023580    -0.03100
Br355      Br  0.51016121  0.07435051  0.51270038    -0.04000
Br356      Br  0.45570120  0.07753794  0.60299468     0.00000
C357        C  0.46817233  0.04442212  0.37489875     0.01400
C358        C  0.46981191  0.03417897  0.39986694     0.04300
C359        C  0.46051276  0.01764005  0.39807331    -0.11800
C360        C  0.45012832  0.01032217  0.37070965     0.23500
C361        C  0.44837104  0.01975600  0.34563277    -0.12400
C362        C  0.45706887  0.03651155  0.34734008     0.05000
C363        C  0.44208606  0.99271034  0.36702682     0.27400
C364        C  0.45022047  0.98614305  0.35298295    -0.13100
C365        C  0.44281147  0.96966165  0.34865230     0.05500
C366        C  0.42736233  0.95870952  0.36263580    -0.09000
C367        C  0.41871309  0.96612532  0.37210836     0.06300
C368        C  0.42623337  0.98261947  0.37604407    -0.13400
Br369      Br  0.43461534  0.00928641  0.30707889    -0.05500
Br370      Br  0.48501278  0.04183416  0.43779020     0.00100
Br371      Br  0.45306912  0.96458081  0.31487078     0.00600
Br372      Br  0.41498001  0.99163364  0.39541988    -0.03800
Br373      Br  0.45531584  0.04724546  0.30706964     0.00700
Br374      Br  0.46196035  0.00461498  0.43377798    -0.03100
Br375      Br  0.47211873  0.00007992  0.34029960    -0.04000
Br376      Br  0.39597866  0.95483707  0.37489017     0.00000
C377        C  0.46919232  0.05715702  0.63891306     0.01400
C378        C  0.46856547  0.04530560  0.61688042     0.04300
C379        C  0.45515810  0.03004142  0.61520258    -0.11800
C380        C  0.44249102  0.02483199  0.63784896     0.23500
C381        C  0.44178224  0.03613556  0.65704493    -0.12400
C382        C  0.45464465  0.05211072  0.65762863     0.05000
C383        C  0.43043033  0.00738631  0.64159545     0.27400
C384        C  0.42061910  0.99901847  0.61412442    -0.13100
C385        C  0.41385850  0.98253258  0.61237189     0.05500
C386        C  0.41784265  0.97417901  0.63786729    -0.09000
C387        C  0.42267534  0.98205299  0.67007410     0.06300
C388        C  0.42960748  0.99866038  0.67140352    -0.13400
Br389      Br  0.42196970  0.02949362  0.67973637    -0.05500
Br390      Br  0.48667584  0.04738347  0.59285974     0.00100
Br391      Br  0.39680371  0.97253539  0.57881851     0.00600
Br392      Br  0.44025877  0.00956356  0.71272793    -0.03800
Br393      Br  0.45005174  0.06553124  0.68367517     0.00700
Br394      Br  0.45441965  0.01622476  0.58067470    -0.03100
Br395      Br  0.41645895  0.01060801  0.57922877    -0.04000
Br396      Br  0.42134261  0.97142253  0.71283417     0.00000
C397        C  0.41158109  0.95311823  0.59195463     0.01400
C398        C  0.42194692  0.96389106  0.56570736     0.04300
C399        C  0.41727953  0.96217800  0.53127997    -0.11800
C400        C  0.40744166  0.94707965  0.51912217     0.23500
C401        C  0.39801119  0.93519416  0.54313765    -0.12400
C402        C  0.39805738  0.93899464  0.57808097     0.05000
C403        C  0.40968518  0.94386549  0.48301841     0.27400
C404        C  0.39725958  0.93660061  0.45925250    -0.13100
C405        C  0.39995252  0.93269786  0.42631731     0.05500
C406        C  0.41593063  0.94044423  0.41272063    -0.09000
C407        C  0.42819028  0.95058481  0.43652240     0.06300
C408        C  0.42504546  0.94938325  0.47166725    -0.13400
Br409      Br  0.38644451  0.91347812  0.52926289    -0.05500
Br410      Br  0.44375159  0.97948135  0.57141359     0.00100
Br411      Br  0.38058084  0.91773778  0.40296870     0.00600
Br412      Br  0.44185875  0.95409792  0.50443643    -0.03800
Br413      Br  0.37952351  0.92335226  0.60209388     0.00700
Br414      Br  0.42618853  0.98017243  0.49997219    -0.03100
Br415      Br  0.37690629  0.93357537  0.47065904    -0.04000
Br416      Br  0.45012748  0.96543478  0.42498157     0.00000
C417        C  0.56764625  0.06375774  0.42088917     0.01400
C418        C  0.55690144  0.06289956  0.44695252     0.04300
C419        C  0.54226033  0.06115619  0.43764306    -0.11800
C420        C  0.53998020  0.06558796  0.40489321     0.23500
C421        C  0.55182598  0.07018584  0.38043895    -0.12400
C422        C  0.56436782  0.06754788  0.38671254     0.05000
C423        C  0.52523328  0.06557713  0.39609104     0.27400
C424        C  0.51382067  0.05411326  0.37457015    -0.13100
C425        C  0.50046828  0.05463660  0.36396351     0.05500
C426        C  0.49715151  0.06592630  0.37803033    -0.09000
C427        C  0.51054577  0.07908027  0.39369508     0.06300
C428        C  0.52360883  0.07814533  0.40537261    -0.13400
Br429      Br  0.55019582  0.07936414  0.33737228    -0.05500
Br430      Br  0.56126788  0.06758402  0.49498862     0.00100
Br431      Br  0.48896765  0.04106843  0.32571421     0.00600
Br432      Br  0.54004255  0.09480774  0.43239776    -0.03800
Br433      Br  0.57431714  0.06669562  0.34547058     0.00700
Br434      Br  0.52499603  0.05232636  0.46988112    -0.03100
Br435      Br  0.51607645  0.03710701  0.35993247    -0.04000
Br436      Br  0.51555223  0.10027998  0.38553422     0.00000
C437        C  0.49964603  0.07325957  0.65373241     0.01400
C438        C  0.51517607  0.08708399  0.65898250     0.04300
C439        C  0.52864912  0.08582471  0.66391123    -0.11800
C440        C  0.52707363  0.07111612  0.66666609     0.23500
C441        C  0.51205475  0.05762816  0.66886150    -0.12400
C442        C  0.49845668  0.05868985  0.66587659     0.05000
C443        C  0.54121303  0.06977254  0.67097207     0.27400
C444        C  0.54588389  0.06400958  0.64440881    -0.13100
C445        C  0.55733224  0.05993071  0.65030934     0.05500
C446        C  0.56667703  0.06422988  0.68105152    -0.09000
C447        C  0.56101023  0.06956300  0.70862541     0.06300
C448        C  0.54848449  0.07224014  0.70309348    -0.13400
Br449      Br  0.51035379  0.03745783  0.67682899    -0.05500
Br450      Br  0.52019868  0.10856517  0.65630121     0.00100
Br451      Br  0.55673465  0.04526765  0.61870672     0.00600
Br452      Br  0.54049379  0.07883063  0.74008429    -0.03800
Br453      Br  0.47989263  0.03998523  0.68496721     0.00700
Br454      Br  0.54987269  0.10428762  0.66342841    -0.03100
Br455      Br  0.53568289  0.06085405  0.60005159    -0.04000
Br456      Br  0.56780600  0.07173381  0.75613211     0.00000
C457        C  0.59159117  0.06749815  0.64976211     0.01400
C458        C  0.59908811  0.06004202  0.63596250     0.04300
C459        C  0.59631009  0.05576721  0.60117902    -0.11800
C460        C  0.59073405  0.06317183  0.57856515     0.23500
C461        C  0.58870017  0.07507282  0.59206931    -0.12400
C462        C  0.59225126  0.07905357  0.62670152     0.05000
C463        C  0.59014625  0.06098288  0.54057245     0.27400
C464        C  0.60232220  0.07228312  0.51962252    -0.13100
C465        C  0.60106122  0.07136986  0.48340507     0.05500
C466        C  0.58611373  0.06027533  0.46706060    -0.09000
C467        C  0.57515539  0.04758738  0.48938673     0.06300
C468        C  0.57769839  0.04767324  0.52514280    -0.13400
Br469      Br  0.58412540  0.08821031  0.56354196    -0.05500
Br470      Br  0.62142809  0.07036772  0.64577875     0.00100
Br471      Br  0.62141731  0.08372807  0.46054722     0.00600
Br472      Br  0.56385415  0.02937717  0.55293762    -0.03800
Br473      Br  0.61187307  0.09918470  0.62725883     0.00700
Br474      Br  0.60389525  0.04304054  0.58373520    -0.03100
Br475      Br  0.62153651  0.08829453  0.54158520    -0.04000
Br476      Br  0.55470439  0.03106594  0.47497304     0.00000
C477        C  0.43386725  0.93532199  0.37299923     0.01400
C478        C  0.44113891  0.93279537  0.40335436     0.04300
C479        C  0.45641232  0.93523628  0.40158726    -0.11800
C480        C  0.46257130  0.93495865  0.37013284     0.23500
C481        C  0.45316876  0.93168879  0.34071235    -0.12400
C482        C  0.43895501  0.93185132  0.34161116     0.05000
C483        C  0.47861270  0.93729576  0.36795576     0.27400
C484        C  0.49119993  0.95167516  0.35586777    -0.13100
C485        C  0.50613112  0.95358325  0.34983166     0.05500
C486        C  0.50926540  0.94139070  0.36104802    -0.09000
C487        C  0.49524809  0.92625003  0.36424885     0.06300
C488        C  0.48075420  0.92459484  0.37272907    -0.13400
Br489      Br  0.46048600  0.92762685  0.29877942    -0.05500
Br490      Br  0.43090834  0.92235708  0.44645179     0.00100
Br491      Br  0.52056006  0.97306975  0.32523700     0.00600
Br492      Br  0.46315209  0.90421058  0.38633911    -0.03800
Br493      Br  0.42798812  0.92756200  0.29787777     0.00700
Br494      Br  0.46891721  0.93854722  0.44264007    -0.03100
Br495      Br  0.48818475  0.96930327  0.35113137    -0.04000
Br496      Br  0.49187267  0.90963594  0.33509358     0.00000
C497        C  0.53825987  0.96282361  0.37115586     0.01400
C498        C  0.53531065  0.97185233  0.39510673     0.04300
C499        C  0.54641151  0.98766368  0.40080544    -0.11800
C500        C  0.55928155  0.99629603  0.37900958     0.23500
C501        C  0.56200080  0.98835886  0.35330861    -0.12400
C502        C  0.55246154  0.97164001  0.35097328     0.05000
C503        C  0.56883041  0.01381065  0.38308292     0.27400
C504        C  0.56234864  0.02244501  0.37051300    -0.13100
C505        C  0.56386599  0.03486010  0.38970603     0.05500
C506        C  0.57725443  0.04378682  0.41213301    -0.09000
C507        C  0.58575963  0.03587578  0.42077101     0.06300
C508        C  0.58069970  0.02064656  0.40821163    -0.13400
Br509      Br  0.57926453  0.00062560  0.32216031    -0.05500
Br510      Br  0.51628626  0.96329548  0.42278829     0.00100
Br511      Br  0.54323435  0.03175857  0.39590727     0.00600
Br512      Br  0.58984660  0.00872835  0.42510943    -0.03800
Br513      Br  0.56135393  0.96206899  0.32451076     0.00700
Br514      Br  0.54422449  0.99733502  0.44057270    -0.03100
Br515      Br  0.54838434  0.01502349  0.33125614    -0.04000
Br516      Br  0.60491048  0.04501243  0.44753073     0.00000
C517        C  0.50101968  0.94841822  0.64063727     0.01400
C518        C  0.48708935  0.93881710  0.66184741     0.04300
C519        C  0.47463006  0.94186395  0.66290417    -0.11800
C520        C  0.47502959  0.95390992  0.64296358     0.23500
C521        C  0.48885269  0.96448504  0.62524516    -0.12400
C522        C  0.50182460  0.96222376  0.62463747     0.05000
C523        C  0.46063533  0.95519316  0.64005966     0.27400
C524        C  0.44712025  0.94377987  0.62291811    -0.13100
C525        C  0.43300984  0.94399500  0.62344909     0.05500
C526        C  0.43275730  0.95768571  0.63435711    -0.09000
C527        C  0.44785439  0.97022699  0.64757127     0.06300
C528        C  0.46037167  0.96764896  0.65478178    -0.13400
Br529      Br  0.48927935  0.98154344  0.59894727    -0.05500
Br530      Br  0.48336354  0.92192172  0.69326661     0.00100
Br531      Br  0.41443572  0.92384918  0.61322886     0.00600
Br532      Br  0.47735703  0.98109813  0.68585740    -0.03800
Br533      Br  0.51909655  0.97755647  0.59587887     0.00700
Br534      Br  0.45649037  0.92973689  0.69282693    -0.03100
Br535      Br  0.44759815  0.92695830  0.60048349    -0.04000
Br536      Br  0.45537552  0.99227272  0.64973628     0.00000
C537        C  0.53028482  0.96150087  0.64798156     0.01400
C538        C  0.54420999  0.97219565  0.62811399     0.04300
C539        C  0.55397400  0.98816278  0.63719633    -0.11800
C540        C  0.55187252  0.99341418  0.66828255     0.23500
C541        C  0.54109838  0.98245227  0.69186246    -0.12400
C542        C  0.52992727  0.96703732  0.68174432     0.05000
C543        C  0.56000846  0.01052286  0.67571163     0.27400
C544        C  0.57608626  0.01936736  0.68480472    -0.13100
C545        C  0.58347251  0.03571399  0.69108774     0.05500
C546        C  0.57433097  0.04324487  0.69058671    -0.09000
C547        C  0.55759201  0.03235587  0.69223233     0.06300
C548        C  0.55085565  0.01733587  0.67886602    -0.13400
Br549      Br  0.54188746  0.98910770  0.73850678    -0.05500
Br550      Br  0.55202873  0.96680970  0.58965401     0.00100
Br551      Br  0.60505222  0.04562147  0.70712975     0.00600
Br552      Br  0.52862833  0.00588293  0.66688883    -0.03800
Br553      Br  0.51524364  0.95418976  0.71722417     0.00700
Br554      Br  0.57020311  0.00331656  0.60649280    -0.03100
Br555      Br  0.58752936  0.00858280  0.69061722    -0.04000
Br556      Br  0.54379935  0.03420047  0.72333686     0.00000
C557        C  0.51588646  0.94179459  0.59473857     0.01400
C558        C  0.50658825  0.94386491  0.56857725     0.04300
C559        C  0.51091887  0.94579456  0.53412857    -0.11800
C560        C  0.51968572  0.93961357  0.52227113     0.23500
C561        C  0.52536609  0.93293296  0.54614665    -0.12400
C562        C  0.52435078  0.93462202  0.58191822     0.05000
C563        C  0.52225545  0.93939449  0.48475226     0.27400
C564        C  0.51055741  0.92761818  0.46409618    -0.13100
C565        C  0.51344281  0.92689004  0.42910252     0.05500
C566        C  0.52678933  0.93968893  0.41223438    -0.09000
C567        C  0.53973475  0.94967950  0.43522151     0.06300
C568        C  0.53707688  0.94990509  0.47050401    -0.13400
Br569      Br  0.53506375  0.92189541  0.52893819    -0.05500
Br570      Br  0.48447662  0.93722675  0.57213167     0.00100
Br571      Br  0.50369835  0.90594473  0.41214917     0.00600
Br572      Br  0.55362362  0.96539008  0.49936703    -0.03800
Br573      Br  0.53604393  0.92768441  0.60982048     0.00700
Br574      Br  0.50329382  0.95574974  0.50322151    -0.03100
Br575      Br  0.49064967  0.91193201  0.48416543    -0.04000
Br576      Br  0.56177703  0.96274416  0.42129844     0.00000
C577        C  0.69418664  0.49722821  0.78551825     0.01400
C578        C  0.70840895  0.51062667  0.79620036     0.04300
C579        C  0.72274328  0.51103613  0.79355324    -0.11800
C580        C  0.72300843  0.49852714  0.77841424     0.23500
C581        C  0.70916033  0.48624142  0.76347898    -0.12400
C582        C  0.69466189  0.48532163  0.76792239     0.05000
C583        C  0.73681866  0.49673395  0.78410979     0.27400
C584        C  0.75017582  0.50447312  0.76280134    -0.13100
C585        C  0.76326753  0.50279462  0.76936505     0.05500
C586        C  0.76288222  0.49309667  0.79695494    -0.09000
C587        C  0.74944042  0.48546038  0.81836911     0.06300
C588        C  0.73657387  0.48742245  0.81213257    -0.13400
Br589      Br  0.71000505  0.47018770  0.73894538    -0.05500
Br590      Br  0.70823153  0.52773137  0.81773316     0.00100
Br591      Br  0.78141147  0.51341162  0.73970036     0.00600
Br592      Br  0.71865827  0.47774990  0.84279887    -0.03800
Br593      Br  0.67539751  0.46745493  0.75100914     0.00700
Br594      Br  0.74174094  0.52789283  0.81384551    -0.03100
Br595      Br  0.75042337  0.51736918  0.72479836    -0.04000
Br596      Br  0.74873258  0.47295577  0.85773970     0.00000
C597        C  0.66513178  0.49874738  0.92615989     0.01400
C598        C  0.66731314  0.48779063  0.94536139     0.04300
C599        C  0.66928532  0.48907787  0.98106773    -0.11800
C600        C  0.66959317  0.50157535  0.99767608     0.23500
C601        C  0.66862787  0.51318808  0.97835828    -0.12400
C602        C  0.66620759  0.51170719  0.94267681     0.05000
C603        C  0.66969798  0.50173538  0.03561470     0.27400
C604        C  0.65534206  0.49580088  0.05324815    -0.13100
C605        C  0.65511492  0.49495023  0.08923139     0.05500
C606        C  0.66914942  0.49939413  0.10768817    -0.09000
C607        C  0.68346442  0.50510843  0.08998111     0.06300
C608        C  0.68380381  0.50663216  0.05403949    -0.13400
Br609      Br  0.67016851  0.53085507  0.00117307    -0.05500
Br610      Br  0.66814454  0.47121637  0.92291924     0.00100
Br611      Br  0.63554271  0.48783941  0.11310471     0.00600
Br612      Br  0.70343360  0.51472686  0.02980241    -0.03800
Br613      Br  0.66318680  0.52685622  0.91731952     0.00700
Br614      Br  0.67102525  0.47338875  0.00756406    -0.03100
Br615      Br  0.63583580  0.48802449  0.02791744    -0.04000
Br616      Br  0.70225320  0.50919682  0.11441529     0.00000
C617        C  0.80750042  0.49928139  0.92314122     0.01400
C618        C  0.79540281  0.49132809  0.94769996     0.04300
C619        C  0.79899301  0.49365870  0.98284051    -0.11800
C620        C  0.81454165  0.50441717  0.99357206     0.23500
C621        C  0.82637800  0.51324733  0.96915721    -0.12400
C622        C  0.82299999  0.51042947  0.93401671     0.05000
C623        C  0.81881700  0.50488547  0.03025962     0.27400
C624        C  0.81739381  0.51483838  0.05281818    -0.13100
C625        C  0.82049866  0.51434063  0.08802800     0.05500
C626        C  0.82463686  0.50355621  0.10082490    -0.09000
C627        C  0.82650811  0.49393606  0.07789213     0.06300
C628        C  0.82373695  0.49472225  0.04269389    -0.13400
Br629      Br  0.84742588  0.52858424  0.98428463    -0.05500
Br630      Br  0.77383604  0.47727919  0.93352135     0.00100
Br631      Br  0.81787658  0.52764493  0.11875863     0.00600
Br632      Br  0.82617016  0.48149226  0.01129945    -0.03800
Br633      Br  0.84011118  0.52055286  0.90153533     0.00700
Br634      Br  0.78284512  0.48147232  0.01652767    -0.03100
Br635      Br  0.81046223  0.52857344  0.03553183    -0.04000
Br636      Br  0.83298598  0.47968207  0.09434016     0.00000
C637        C  0.78331550  0.49736665  0.21725737     0.01400
C638        C  0.77240812  0.49201276  0.18974230     0.04300
C639        C  0.75807659  0.49164314  0.19240481    -0.11800
C640        C  0.75468324  0.49695529  0.22221861     0.23500
C641        C  0.76570096  0.50264738  0.24940775    -0.12400
C642        C  0.77996030  0.50279469  0.24701714     0.05000
C643        C  0.73956025  0.49665853  0.22461269     0.27400
C644        C  0.73858112  0.50947755  0.21187107    -0.13100
C645        C  0.72409841  0.50892999  0.21249926     0.05500
C646        C  0.71035196  0.49532449  0.22506627    -0.09000
C647        C  0.71139211  0.48250943  0.23799541     0.06300
C648        C  0.72599088  0.48327096  0.23811946    -0.13400
Br649      Br  0.76106783  0.51006064  0.29001203    -0.05500
Br650      Br  0.77742838  0.48597937  0.14747708     0.00100
Br651      Br  0.72306699  0.52651379  0.19392899     0.00600
Br652      Br  0.72743809  0.46585476  0.25616526    -0.03800
Br653      Br  0.79451201  0.50972863  0.28516198     0.00700
Br654      Br  0.74295136  0.48379684  0.15524482    -0.03100
Br655      Br  0.75704503  0.52753227  0.19216674    -0.04000
Br656      Br  0.69290536  0.46392437  0.25618264     0.00000
C657        C  0.64410209  0.13333233  0.82274335     0.01400
C658        C  0.62834230  0.12179317  0.83159340     0.04300
C659        C  0.62030912  0.10763531  0.81369437    -0.11800
C660        C  0.62756697  0.10528305  0.78568889     0.23500
C661        C  0.64372591  0.11596370  0.77928445    -0.12400
C662        C  0.65205590  0.12981191  0.79831199     0.05000
C663        C  0.61731026  0.09415438  0.75881351     0.27400
C664        C  0.60999746  0.07787550  0.76403732    -0.13100
C665        C  0.59691521  0.06743579  0.74378535     0.05500
C666        C  0.59297460  0.07294432  0.71300967    -0.09000
C667        C  0.59980779  0.08977161  0.71009051     0.06300
C668        C  0.61221415  0.10003568  0.73183916    -0.13400
Br669      Br  0.65385662  0.11225857  0.74218947    -0.05500
Br670      Br  0.61683194  0.12583484  0.86505562     0.00100
Br671      Br  0.58232928  0.04747416  0.76649618     0.00600
Br672      Br  0.62167767  0.12263630  0.72642794    -0.03800
Br673      Br  0.67437881  0.14391987  0.79080416     0.00700
Br674      Br  0.59877283  0.09200605  0.82573741    -0.03100
Br675      Br  0.61754966  0.06996172  0.80053379    -0.04000
Br676      Br  0.59001029  0.09980368  0.68509654     0.00000
C677        C  0.79757820  0.37496743  0.82090619     0.01400
C678        C  0.80635069  0.38903147  0.83921549     0.04300
C679        C  0.80308913  0.40108199  0.83477964    -0.11800
C680        C  0.79134958  0.39938475  0.81141543     0.23500
C681        C  0.78242433  0.38533491  0.79337665    -0.12400
C682        C  0.78549566  0.37309886  0.79817235     0.05000
C683        C  0.78895126  0.41275981  0.80564754     0.27400
C684        C  0.77880448  0.41454224  0.82722180    -0.13100
C685        C  0.77924644  0.42886991  0.82720845     0.05500
C686        C  0.78990841  0.44149237  0.80568831    -0.09000
C687        C  0.79913667  0.43922305  0.78205262     0.06300
C688        C  0.79863216  0.42485444  0.78212135    -0.13400
Br689      Br  0.76588475  0.38289126  0.76264280    -0.05500
Br690      Br  0.82357981  0.39239312  0.86897029     0.00100
Br691      Br  0.76528882  0.43118135  0.85699680     0.00600
Br692      Br  0.81213248  0.42206473  0.75189950    -0.03800
Br693      Br  0.77262607  0.35356766  0.77486505     0.00700
Br694      Br  0.81470240  0.42005629  0.86085054    -0.03100
Br695      Br  0.76510184  0.39765014  0.85834795    -0.04000
Br696      Br  0.81373427  0.45617107  0.75196194     0.00000
C697        C  0.77344906  0.29608093  0.81771974     0.01400
C698        C  0.77407244  0.28384812  0.83533523     0.04300
C699        C  0.76066926  0.26852644  0.83634214    -0.11800
C700        C  0.74663813  0.26526468  0.81940965     0.23500
C701        C  0.74628345  0.27726730  0.80021836    -0.12400
C702        C  0.75966574  0.29262594  0.79929603     0.05000
C703        C  0.73192137  0.24963012  0.82439204     0.27400
C704        C  0.72870177  0.23681067  0.80407033    -0.13100
C705        C  0.71490269  0.22194476  0.80979167     0.05500
C706        C  0.70413216  0.21992743  0.83556819    -0.09000
C707        C  0.70751353  0.23281271  0.85602983     0.06300
C708        C  0.72134133  0.24754474  0.85048462    -0.13400
Br709      Br  0.72717826  0.27273931  0.77647228    -0.05500
Br710      Br  0.79282549  0.28820075  0.86052483     0.00100
Br711      Br  0.71060311  0.20459594  0.78149512     0.00600
Br712      Br  0.72603113  0.26493465  0.87918946    -0.03800
Br713      Br  0.75923209  0.30886552  0.77218246     0.00700
Br714      Br  0.76113696  0.25214977  0.86282661    -0.03100
Br715      Br  0.74325805  0.23979672  0.76834391    -0.04000
Br716      Br  0.69373336  0.23019591  0.89334697     0.00000
C717        C  0.59658783  0.07542584  0.40765167     0.01400
C718        C  0.60619112  0.07466764  0.38078029     0.04300
C719        C  0.61844554  0.08858528  0.36460262    -0.11800
C720        C  0.62039686  0.10323155  0.37077673     0.23500
C721        C  0.61150713  0.10451411  0.39629295    -0.12400
C722        C  0.60032068  0.09116624  0.41535195     0.05000
C723        C  0.63036448  0.11710021  0.34773701     0.27400
C724        C  0.64577106  0.12891136  0.35738645    -0.13100
C725        C  0.65408728  0.14298191  0.33765696     0.05500
C726        C  0.64700136  0.14533038  0.30820508    -0.09000
C727        C  0.63169966  0.13330984  0.29826716     0.06300
C728        C  0.62358996  0.11920134  0.31758854    -0.13400
Br729      Br  0.61497435  0.12516597  0.40488539    -0.05500
Br730      Br  0.60263182  0.05591698  0.35881910     0.00100
Br731      Br  0.67525097  0.15890105  0.35076661     0.00600
Br732      Br  0.60283435  0.10284118  0.30329070    -0.03800
Br733      Br  0.59155413  0.09600467  0.45339289     0.00700
Br734      Br  0.63272576  0.08802066  0.33218501    -0.03100
Br735      Br  0.65529106  0.12582090  0.39794764    -0.04000
Br736      Br  0.62094430  0.13659100  0.26015075     0.00000
C737        C  0.67195868  0.18274883  0.14698597     0.01400
C738        C  0.67440654  0.19498049  0.12386093     0.04300
C739        C  0.67409474  0.19289672  0.08832046    -0.11800
C740        C  0.67215399  0.17892927  0.07555785     0.23500
C741        C  0.67028656  0.16692100  0.09848371    -0.12400
C742        C  0.66986440  0.16866641  0.13408890     0.05000
C743        C  0.67106604  0.17659168  0.03795532     0.27400
C744        C  0.65611984  0.16802482  0.02220013    -0.13100
C745        C  0.65489476  0.16687373  0.98636003     0.05500
C746        C  0.66858822  0.17501063  0.96583546    -0.09000
C747        C  0.68362266  0.18307211  0.98170090     0.06300
C748        C  0.68483038  0.18372052  0.01773461    -0.13400
Br749      Br  0.66765535  0.14781856  0.08077771    -0.05500
Br750      Br  0.67862610  0.21488979  0.14046887     0.00100
Br751      Br  0.63437697  0.15359427  0.96566724     0.00600
Br752      Br  0.70529393  0.19498073  0.03960129    -0.03800
Br753      Br  0.66489707  0.15111706  0.16455537     0.00700
Br754      Br  0.67550674  0.20886968  0.05685145    -0.03100
Br755      Br  0.63723214  0.15858856  0.04973971    -0.04000
Br756      Br  0.70258859  0.19419517  0.95449742     0.00000
C757        C  0.82177375  0.38324455  0.23571856     0.01400
C758        C  0.82428071  0.39274579  0.20612782     0.04300
C759        C  0.82442599  0.40683815  0.20846163    -0.11800
C760        C  0.82110664  0.41110597  0.23983059     0.23500
C761        C  0.81817839  0.40151195  0.26926889    -0.12400
C762        C  0.81880300  0.38774343  0.26742211     0.05000
C763        C  0.82017066  0.42544371  0.24093395     0.27400
C764        C  0.83351008  0.43985302  0.25054905    -0.13100
C765        C  0.83350220  0.45387249  0.24576442     0.05500
C766        C  0.82012380  0.45347123  0.23167356    -0.09000
C767        C  0.80652119  0.43902035  0.22360598     0.06300
C768        C  0.80652593  0.42499714  0.22833787    -0.13400
Br769      Br  0.81324470  0.40730615  0.31190915    -0.05500
Br770      Br  0.82623013  0.38600271  0.16155111     0.00100
Br771      Br  0.85196983  0.47373416  0.25756958     0.00600
Br772      Br  0.78821157  0.40520692  0.21567401    -0.03800
Br773      Br  0.81628082  0.37559098  0.30875042     0.00700
Br774      Br  0.82915622  0.42041416  0.16849037    -0.03100
Br775      Br  0.85203839  0.44045191  0.26865344    -0.04000
Br776      Br  0.78842878  0.43860271  0.20329649     0.00000
C777        C  0.81598072  0.33553796  0.94097833     0.01400
C778        C  0.80595377  0.33640694  0.96482460     0.04300
C779        C  0.80875961  0.33605842  0.00018659    -0.11800
C780        C  0.82120162  0.33418556  0.01208885     0.23500
C781        C  0.83079090  0.33258182  0.98832454    -0.12400
C782        C  0.82835766  0.33351495  0.95283023     0.05000
C783        C  0.82426966  0.33441607  0.04963031     0.27400
C784        C  0.83557854  0.34858099  0.06506514    -0.13100
C785        C  0.83636413  0.34969147  0.10100386     0.05500
C786        C  0.82616610  0.33653842  0.12175060    -0.09000
C787        C  0.81582089  0.32200023  0.10640143     0.06300
C788        C  0.81467245  0.32101349  0.07038615    -0.13400
Br789      Br  0.84737657  0.32933022  0.00447119    -0.05500
Br790      Br  0.78786211  0.33735256  0.94923274     0.00100
Br791      Br  0.85141292  0.36929350  0.12200444     0.00600
Br792      Br  0.79925986  0.30160134  0.04926324    -0.03800
Br793      Br  0.84268556  0.33313441  0.92060582     0.00700
Br794      Br  0.79573720  0.33851358  0.03253730    -0.03100
Br795      Br  0.84952127  0.36666976  0.03688402    -0.04000
Br796      Br  0.80255226  0.30366971  0.13454223     0.00000
C797        C  0.78322780  0.30054373  0.24789052     0.01400
C798        C  0.77086614  0.29492661  0.22343770     0.04300
C799        C  0.75709879  0.28006713  0.22813715    -0.11800
C800        C  0.75538630  0.27082997  0.25758140     0.23500
C801        C  0.76755207  0.27648472  0.28230917    -0.12400
C802        C  0.78149253  0.29126768  0.27743817     0.05000
C803        C  0.74050811  0.25538470  0.26268625     0.27400
C804        C  0.72776635  0.25454425  0.28006881    -0.13100
C805        C  0.71304217  0.24032193  0.28154209     0.05500
C806        C  0.71090971  0.22687310  0.26520229    -0.09000
C807        C  0.72391256  0.22762618  0.24886624     0.06300
C808        C  0.73869868  0.24179610  0.24803734    -0.13400
Br809      Br  0.76488992  0.26397969  0.32306309    -0.05500
Br810      Br  0.77277093  0.30725014  0.18267550     0.00100
Br811      Br  0.69593969  0.23932188  0.30658961     0.00600
Br812      Br  0.75646486  0.24283107  0.22589594    -0.03800
Br813      Br  0.79771406  0.29913465  0.31234672     0.00700
Br814      Br  0.74048341  0.27225649  0.19408986    -0.03100
Br815      Br  0.73053356  0.27311769  0.30107872    -0.04000
Br816      Br  0.72127106  0.20977916  0.22468580     0.00000
C817        C  0.49698747  0.15169705  0.76483025     0.01400
C818        C  0.48120747  0.14051153  0.75613573     0.04300
C819        C  0.47781891  0.12772317  0.73536424    -0.11800
C820        C  0.49016849  0.12596538  0.72360160     0.23500
C821        C  0.50589402  0.13704506  0.73277507    -0.12400
C822        C  0.50926738  0.14974919  0.75339957     0.05000
C823        C  0.48683442  0.11241782  0.70199931     0.27400
C824        C  0.48580076  0.09910045  0.71720556    -0.13100
C825        C  0.48474189  0.08701837  0.69703456     0.05500
C826        C  0.48464020  0.08776819  0.65987556    -0.09000
C827        C  0.48678683  0.10247285  0.64527420     0.06300
C828        C  0.48679664  0.11385226  0.66634770    -0.13400
Br829      Br  0.52296001  0.13471806  0.71776882    -0.05500
Br830      Br  0.46431105  0.14283430  0.77228401     0.00100
Br831      Br  0.48334532  0.06979440  0.72355934     0.00600
Br832      Br  0.48853112  0.13286667  0.64701235    -0.03800
Br833      Br  0.53074626  0.16366730  0.76829965     0.00700
Br834      Br  0.45632460  0.11252685  0.72297184    -0.03100
Br835      Br  0.48619185  0.09787173  0.76689683    -0.04000
Br836      Br  0.49459938  0.11122746  0.59947212     0.00000
C837        C  0.55614163  0.19049334  0.83872809     0.01400
C838        C  0.55998020  0.18448478  0.86808979     0.04300
C839        C  0.57335993  0.18301451  0.86813071    -0.11800
C840        C  0.58294286  0.18739788  0.83881198     0.23500
C841        C  0.57936768  0.19368421  0.80977185    -0.12400
C842        C  0.56622694  0.19556016  0.80987688     0.05000
C843        C  0.59730597  0.18622414  0.83923380     0.27400
C844        C  0.61162172  0.19867542  0.85209073    -0.13100
C845        C  0.62513173  0.19745252  0.85394090     0.05500
C846        C  0.62454872  0.18390685  0.84198242    -0.09000
C847        C  0.61042776  0.17185197  0.82708585     0.06300
C848        C  0.59671496  0.17279661  0.82678429    -0.13400
Br849      Br  0.59245199  0.19946747  0.76956150    -0.05500
Br850      Br  0.54750224  0.17905266  0.90930635     0.00100
Br851      Br  0.64461816  0.21475818  0.87161088     0.00600
Br852      Br  0.57688379  0.15541209  0.81083890    -0.03800
Br853      Br  0.56204523  0.20467602  0.76985379     0.00700
Br854      Br  0.57868183  0.17501081  0.90839209    -0.03100
Br855      Br  0.61254812  0.21735190  0.86758159    -0.04000
Br856      Br  0.60957716  0.15380872  0.80785529     0.00000
C857        C  0.53995671  0.37266658  0.81231449     0.01400
C858        C  0.54040095  0.38664234  0.80290422     0.04300
C859        C  0.55487323  0.40106855  0.80239713    -0.11800
C860        C  0.56899079  0.40150307  0.81045443     0.23500
C861        C  0.56868510  0.38744615  0.81782304    -0.12400
C862        C  0.55417654  0.37303266  0.81886538     0.05000
C863        C  0.58407414  0.41680905  0.81238325     0.27400
C864        C  0.59325332  0.42378122  0.78278674    -0.13100
C865        C  0.60727239  0.43860090  0.78450409     0.05500
C866        C  0.61225837  0.44637083  0.81608522    -0.09000
C867        C  0.60322751  0.43911741  0.84590479     0.06300
C868        C  0.58912084  0.42443334  0.84395029    -0.13400
Br869      Br  0.58818472  0.38811919  0.82732100    -0.05500
Br870      Br  0.52131604  0.38594588  0.78893500     0.00100
Br871      Br  0.61904365  0.44847333  0.74309276     0.00600
Br872      Br  0.57665402  0.41464377  0.88459927    -0.03800
Br873      Br  0.55377188  0.35394065  0.83092942     0.00700
Br874      Br  0.55540617  0.42032919  0.79137029    -0.03100
Br875      Br  0.58648427  0.41291693  0.73996630    -0.04000
Br876      Br  0.61048890  0.44879425  0.89000725     0.00000
C877        C  0.49183773  0.28836974  0.80583177     0.01400
C878        C  0.48506962  0.27664587  0.83187203     0.04300
C879        C  0.48649450  0.26332349  0.83081176    -0.11800
C880        C  0.49442197  0.26148018  0.80341210     0.23500
C881        C  0.50021067  0.27264698  0.77620338    -0.12400
C882        C  0.49904399  0.28612547  0.77753835     0.05000
C883        C  0.49780674  0.24854617  0.80473960     0.27400
C884        C  0.51220133  0.25133156  0.81882590    -0.13100
C885        C  0.51524513  0.23903044  0.82205661     0.05500
C886        C  0.50398334  0.22378391  0.81060681    -0.09000
C887        C  0.48962581  0.22112077  0.79594036     0.06300
C888        C  0.48659116  0.23346459  0.79310459    -0.13400
Br889      Br  0.51023043  0.26966084  0.73775914    -0.05500
Br890      Br  0.47497566  0.27940998  0.87057564     0.00100
Br891      Br  0.53446280  0.24313797  0.84484464     0.00600
Br892      Br  0.46701980  0.22982868  0.77333341    -0.03800
Br893      Br  0.50727041  0.30152211  0.74056182     0.00700
Br894      Br  0.47840428  0.24800380  0.86793982    -0.03100
Br895      Br  0.52763743  0.27210432  0.83438409    -0.04000
Br896      Br  0.47418158  0.20074927  0.77868719     0.00000
C897        C  0.49213951  0.14713730  0.27301132     0.01400
C898        C  0.48005657  0.13299090  0.25875541     0.04300
C899        C  0.47632915  0.11835812  0.27348317    -0.11800
C900        C  0.48444445  0.11773577  0.30303851     0.23500
C901        C  0.49623112  0.13196908  0.31777155    -0.12400
C902        C  0.50005339  0.14654464  0.30285257     0.05000
C903        C  0.48159801  0.10226671  0.31682951     0.27400
C904        C  0.46783155  0.09177838  0.33503519    -0.13100
C905        C  0.46595539  0.07782657  0.35050789     0.05500
C906        C  0.47839450  0.07440290  0.34986431    -0.09000
C907        C  0.49059841  0.08373043  0.32483453     0.06300
C908        C  0.49253673  0.09781604  0.31042295    -0.13400
Br909      Br  0.50827042  0.13179466  0.35684862    -0.05500
Br910      Br  0.46855003  0.13366309  0.21903349     0.00100
Br911      Br  0.44610355  0.06433014  0.37274179     0.00600
Br912      Br  0.51059917  0.11156753  0.28160823    -0.03800
Br913      Br  0.51742233  0.16569462  0.32150170     0.00700
Br914      Br  0.46086013  0.09914404  0.25171847    -0.03100
Br915      Br  0.45242925  0.09775750  0.34250768    -0.04000
Br916      Br  0.50410774  0.07770797  0.30412532     0.00000
C917        C  0.55740630  0.19347552  0.24702354     0.01400
C918        C  0.57113776  0.20752639  0.25686276     0.04300
C919        C  0.58526650  0.20773694  0.26325941    -0.11800
C920        C  0.58578889  0.19405304  0.25874933     0.23500
C921        C  0.57197513  0.17994088  0.24963127    -0.12400
C922        C  0.55775311  0.17959246  0.24428766     0.05000
C923        C  0.60111017  0.19479906  0.25981504     0.27400
C924        C  0.60987793  0.19838063  0.22945250    -0.13100
C925        C  0.62363852  0.19765725  0.22905434     0.05500
C926        C  0.62864300  0.19319198  0.25904599    -0.09000
C927        C  0.62020953  0.19024717  0.28986087     0.06300
C928        C  0.60649105  0.19114584  0.29023719    -0.13400
Br929      Br  0.57274589  0.16124994  0.24297423    -0.05500
Br930      Br  0.57099189  0.22675633  0.25855517     0.00100
Br931      Br  0.63580359  0.20325004  0.18738314     0.00600
Br932      Br  0.59481876  0.18709851  0.33208563    -0.03800
Br933      Br  0.53865996  0.15998541  0.23369398     0.00700
Br934      Br  0.60412340  0.22684487  0.27690109    -0.03100
Br935      Br  0.60276198  0.20400719  0.18816248    -0.04000
Br936      Br  0.62669293  0.18387782  0.33095935     0.00000
C937        C  0.50922264  0.18946326  0.11753949     0.01400
C938        C  0.52126966  0.19037870  0.09689263     0.04300
C939        C  0.51947143  0.18945268  0.06109595    -0.11800
C940        C  0.50547279  0.18711102  0.04573717     0.23500
C941        C  0.49339044  0.18606716  0.06612498    -0.12400
C942        C  0.49528423  0.18737496  0.10192893     0.05000
C943        C  0.50372270  0.18606919  0.00797819     0.27400
C944        C  0.50693795  0.19943270  0.98822764    -0.13100
C945        C  0.50662108  0.19888632  0.95231861     0.05500
C946        C  0.50396876  0.18527140  0.93602456    -0.09000
C947        C  0.50019378  0.17169270  0.95574463     0.06300
C948        C  0.49983682  0.17204089  0.99172161    -0.13400
Br949      Br  0.47430169  0.18297778  0.04471157    -0.05500
Br950      Br  0.53993475  0.19187825  0.11716516     0.00100
Br951      Br  0.50936701  0.21667612  0.92539675     0.00600
Br952      Br  0.49477182  0.15356762  0.01900064    -0.03800
Br953      Br  0.47901349  0.18704538  0.12901787     0.00700
Br954      Br  0.53626290  0.19151222  0.03276556    -0.03100
Br955      Br  0.51267311  0.21876307  0.01042236    -0.04000
Br956      Br  0.49676494  0.15302796  0.93393000     0.00000
C957        C  0.55287586  0.37850768  0.23070539     0.01400
C958        C  0.56301338  0.37967901  0.25805430     0.04300
C959        C  0.57802267  0.39338378  0.26155562    -0.11800
C960        C  0.58292381  0.40603533  0.23816602     0.23500
C961        C  0.57277081  0.40513326  0.21150720    -0.12400
C962        C  0.55785960  0.39141461  0.20751508     0.05000
C963        C  0.59903526  0.42011994  0.24034588     0.27400
C964        C  0.60167097  0.43336719  0.25822056    -0.13100
C965        C  0.61639145  0.44748916  0.25586254     0.05500
C966        C  0.62843619  0.44833850  0.23570001    -0.09000
C967        C  0.62607923  0.43490937  0.21920493     0.06300
C968        C  0.61140243  0.42075631  0.22172066    -0.13400
Br969      Br  0.57952358  0.42281332  0.18012651    -0.05500
Br970      Br  0.55635599  0.36299739  0.29209456     0.00100
Br971      Br  0.61985249  0.46601933  0.27839122     0.00600
Br972      Br  0.60786925  0.40240884  0.19826160    -0.03800
Br973      Br  0.54490333  0.39034041  0.16888694     0.00700
Br974      Br  0.59202911  0.39500893  0.29835413    -0.03100
Br975      Br  0.58484401  0.43235306  0.28433697    -0.04000
Br976      Br  0.64267892  0.43620151  0.19164397     0.00000
C977        C  0.50180499  0.33199694  0.11605637     0.01400
C978        C  0.51454039  0.34137029  0.09351722     0.04300
C979        C  0.51227042  0.33972269  0.05784467    -0.11800
C980        C  0.49766816  0.32801176  0.04439494     0.23500
C981        C  0.48517186  0.31818618  0.06667317    -0.12400
C982        C  0.48699184  0.32053752  0.10228452     0.05000
C983        C  0.49545570  0.32637876  0.00667897     0.27400
C984        C  0.48867732  0.33386417  0.98861677    -0.13100
C985        C  0.48766433  0.33335242  0.95260509     0.05500
C986        C  0.49421078  0.32604853  0.93438210    -0.09000
C987        C  0.50070735  0.31828237  0.95262057     0.06300
C988        C  0.50091448  0.31809062  0.98870428    -0.13400
Br989      Br  0.46569014  0.30126359  0.04812211    -0.05500
Br990      Br  0.53509603  0.35701077  0.11071345     0.00100
Br991      Br  0.47806889  0.34346967  0.92848271     0.00600
Br992      Br  0.50862193  0.30647018  0.01382343    -0.03800
Br993      Br  0.46908013  0.30769442  0.13162804     0.00700
Br994      Br  0.52904719  0.35382949  0.02704093    -0.03100
Br995      Br  0.48143118  0.34540958  0.01337142    -0.04000
Br996      Br  0.50912655  0.30766541  0.92837170     0.00000
C997        C  0.50077954  0.29420417  0.24666604     0.01400
C998        C  0.50717348  0.29117489  0.27642007     0.04300
C999        C  0.50871891  0.27790152  0.27843252    -0.11800
C1000       C  0.50340357  0.26731196  0.25121928     0.23500
C1001       C  0.49594848  0.26967883  0.22265795    -0.12400
C1002       C  0.49473722  0.28312198  0.22018906     0.05000
C1003       C  0.50651493  0.25424004  0.25121202     0.27400
C1004       C  0.51987131  0.25630879  0.23415577    -0.13100
C1005       C  0.52212452  0.24357372  0.23081360     0.05500
C1006       C  0.51086814  0.22853163  0.24465435    -0.09000
C1007       C  0.49794876  0.22677697  0.26327849     0.06300
C1008       C  0.49569582  0.23953372  0.26626686    -0.13400
Br1009     Br  0.48824330  0.25485115  0.18590875    -0.05500
Br1010     Br  0.51356861  0.30506682  0.31473222     0.00100
Br1011     Br  0.54018825  0.24684983  0.20545305     0.00600
Br1012     Br  0.47758736  0.23688443  0.29014484    -0.03800
Br1013     Br  0.48613895  0.28685522  0.17880588     0.00700
Br1014     Br  0.51885286  0.27460507  0.31760487    -0.03100
Br1015     Br  0.53480641  0.27664102  0.21413372    -0.04000
Br1016     Br  0.48355276  0.20708937  0.28630889     0.00000
C1017       C  0.34690560  0.87199866  0.74368211     0.01400
C1018       C  0.35078405  0.88626642  0.75891956     0.04300
C1019       C  0.36189782  0.90079501  0.74350540    -0.11800
C1020       C  0.36845483  0.90129291  0.71137755     0.23500
C1021       C  0.36399841  0.88705758  0.69520576    -0.12400
C1022       C  0.35348327  0.87247922  0.71145354     0.05000
C1023       C  0.38082058  0.91669633  0.69576536     0.27400
C1024       C  0.37699791  0.92745429  0.68198469    -0.13100
C1025       C  0.38873069  0.94168954  0.66575411     0.05500
C1026       C  0.40440589  0.94471978  0.65981370    -0.09000
C1027       C  0.40850701  0.93559945  0.68275788     0.06300
C1028       C  0.39670647  0.92115265  0.69746010    -0.13400
Br1029     Br  0.37308960  0.88752699  0.65153785    -0.05500
Br1030     Br  0.34046600  0.88606999  0.80051740     0.00100
Br1031     Br  0.38203228  0.95610294  0.65350372     0.00600
Br1032     Br  0.40230683  0.90745232  0.72175319    -0.03800
Br1033     Br  0.34930286  0.85334200  0.69054130     0.00700
Br1034     Br  0.36895579  0.92000718  0.76764360    -0.03100
Br1035     Br  0.35508020  0.92169387  0.68219705    -0.04000
Br1036     Br  0.42906004  0.94314416  0.70390667     0.00000
C1037       C  0.21066259  0.71340109  0.80535814     0.01400
C1038       C  0.21095623  0.72261429  0.77693906     0.04300
C1039       C  0.22446081  0.73759561  0.77054930    -0.11800
C1040       C  0.23751392  0.74363406  0.79308762     0.23500
C1041       C  0.23700183  0.73465044  0.82209048    -0.12400
C1042       C  0.22374979  0.71951594  0.82795925     0.05000
C1043       C  0.25184171  0.75943802  0.78670540     0.27400
C1044       C  0.26502962  0.76082982  0.77015399    -0.13100
C1045       C  0.27921148  0.77553856  0.76753611     0.05500
C1046       C  0.28047610  0.78892985  0.78231284    -0.09000
C1047       C  0.26701974  0.78759857  0.79776493     0.06300
C1048       C  0.25270884  0.77293737  0.79946463    -0.13400
Br1049     Br  0.25450848  0.74322979  0.85399338    -0.05500
Br1050     Br  0.19321780  0.71445883  0.74580794     0.00100
Br1051     Br  0.29681021  0.77731626  0.74305816     0.00600
Br1052     Br  0.23434599  0.77106115  0.82061087    -0.03800
Br1053     Br  0.22341760  0.70740579  0.86782440     0.00700
Br1054     Br  0.22531891  0.74980664  0.73059155    -0.03100
Br1055     Br  0.26376657  0.74238394  0.75214430    -0.04000
Br1056     Br  0.26837249  0.80536744  0.81969321     0.00000
C1057       C  0.17295483  0.66924900  0.11459684     0.01400
C1058       C  0.15870492  0.66496898  0.09698648     0.04300
C1059       C  0.15822603  0.66496053  0.06085999    -0.11800
C1060       C  0.17201726  0.66965440  0.04198648     0.23500
C1061       C  0.18634351  0.67442639  0.05931691    -0.12400
C1062       C  0.18684939  0.67414070  0.09540452     0.05000
C1063       C  0.17145342  0.66945367  0.00384718     0.27400
C1064       C  0.17008406  0.65657893  0.98662722    -0.13100
C1065       C  0.17002473  0.65652446  0.95058334     0.05500
C1066       C  0.17148572  0.66944281  0.93136825    -0.09000
C1067       C  0.17236304  0.68213691  0.94866795     0.06300
C1068       C  0.17237034  0.68212781  0.98482457    -0.13400
Br1069     Br  0.20538547  0.68159865  0.03328217    -0.05500
Br1070     Br  0.13953981  0.65863567  0.12175292     0.00100
Br1071     Br  0.16704365  0.63823062  0.92766934     0.00600
Br1072     Br  0.17385405  0.69955212  0.00863688    -0.03800
Br1073     Br  0.20696642  0.68141309  0.11792005     0.00700
Br1074     Br  0.13861796  0.65831154  0.03683307    -0.03100
Br1075     Br  0.16821484  0.63894157  0.01261740    -0.04000
Br1076     Br  0.17429170  0.69990436  0.92321520     0.00000
C1077       C  0.35240709  0.86695806  0.23739912     0.01400
C1078       C  0.36719327  0.87946568  0.22569661     0.04300
C1079       C  0.37672830  0.89228808  0.24695858    -0.11800
C1080       C  0.37158312  0.89282632  0.28008927     0.23500
C1081       C  0.35646849  0.88078832  0.29106121    -0.12400
C1082       C  0.34694018  0.86787186  0.26995116     0.05000
C1083       C  0.38283443  0.90483118  0.30480820     0.27400
C1084       C  0.39021119  0.90054001  0.32977271    -0.13100
C1085       C  0.40032344  0.91144882  0.35428063     0.05500
C1086       C  0.40640938  0.92815434  0.35020082    -0.09000
C1087       C  0.40001110  0.93229606  0.32078079     0.06300
C1088       C  0.38688936  0.92052487  0.30230824    -0.13400
Br1089     Br  0.34915386  0.88176699  0.33584403    -0.05500
Br1090     Br  0.37534659  0.87853486  0.18175344     0.00100
Br1091     Br  0.40421658  0.90179426  0.39313138     0.00600
Br1092     Br  0.37474948  0.92584615  0.27176746    -0.03800
Br1093     Br  0.32636706  0.85151284  0.28570169     0.00700
Br1094     Br  0.39736981  0.90860084  0.23145309    -0.03100
Br1095     Br  0.38677462  0.87950313  0.32929775    -0.04000
Br1096     Br  0.41034002  0.95238957  0.29642590     0.00000
C1097       C  0.32260118  0.83272250  0.07749380     0.01400
C1098       C  0.33419931  0.83656586  0.05225418     0.04300
C1099       C  0.33050893  0.83666622  0.01737144    -0.11800
C1100       C  0.31549925  0.83370076  0.00734355     0.23500
C1101       C  0.30408484  0.83048228  0.03233174    -0.12400
C1102       C  0.30747259  0.82963005  0.06729535     0.05000
C1103       C  0.31177317  0.83319572  0.97023934     0.27400
C1104       C  0.31788177  0.84730078  0.95086864    -0.13100
C1105       C  0.31864809  0.84708536  0.91490176     0.05500
C1106       C  0.31266383  0.83264942  0.89836162    -0.09000
C1107       C  0.30450315  0.81845835  0.91753473     0.06300
C1108       C  0.30443130  0.81871811  0.95347710    -0.13400
Br1109     Br  0.28371978  0.82688110  0.01829154    -0.05500
Br1110     Br  0.35543249  0.84226646  0.06492863     0.00100
Br1111     Br  0.32940855  0.86660975  0.88907741     0.00600
Br1112     Br  0.29558088  0.79931450  0.97978300    -0.03800
Br1113     Br  0.29079355  0.82283790  0.10043288     0.00700
Br1114     Br  0.34589428  0.84030247  0.98291033    -0.03100
Br1115     Br  0.32627988  0.86692678  0.97409582    -0.04000
Br1116     Br  0.29359156  0.79863261  0.89439812     0.00000
C1117       C  0.28712240  0.78726720  0.19828767     0.01400
C1118       C  0.27405680  0.78879388  0.20585524     0.04300
C1119       C  0.25918697  0.77534105  0.21309035    -0.11800
C1120       C  0.25699718  0.76028864  0.21087084     0.23500
C1121       C  0.26976788  0.75863739  0.20237076    -0.12400
C1122       C  0.28479250  0.77201472  0.19630270     0.05000
C1123       C  0.24112847  0.74601014  0.21570110     0.27400
C1124       C  0.23700145  0.73787915  0.24750842    -0.13100
C1125       C  0.22293437  0.72315786  0.25066805     0.05500
C1126       C  0.21302799  0.71647571  0.22195204    -0.09000
C1127       C  0.21677994  0.72497505  0.19049971     0.06300
C1128       C  0.23082100  0.73973176  0.18743642    -0.13400
Br1129     Br  0.26649181  0.73782702  0.19908998    -0.05500
Br1130     Br  0.27581298  0.80900433  0.20295025     0.00100
Br1131     Br  0.21715049  0.71215041  0.29439761     0.00600
Br1132     Br  0.23653739  0.75096440  0.14392463    -0.03800
Br1133     Br  0.30194098  0.76891447  0.18570802     0.00700
Br1134     Br  0.24168670  0.77739496  0.22617506    -0.03100
Br1135     Br  0.25107653  0.74659836  0.28618767    -0.04000
Br1136     Br  0.20352912  0.71590757  0.15062782     0.00000
C1137       C  0.18390933  0.63443569  0.79628318     0.01400
C1138       C  0.17347389  0.62254686  0.77390201     0.04300
C1139       C  0.17426066  0.60893513  0.77080797    -0.11800
C1140       C  0.18586927  0.60750640  0.78902936     0.23500
C1141       C  0.19757237  0.62032960  0.80766442    -0.12400
C1142       C  0.19640020  0.63365045  0.81190250     0.05000
C1143       C  0.18435481  0.59190970  0.79311838     0.27400
C1144       C  0.17489596  0.58167464  0.81972337    -0.13100
C1145       C  0.17338567  0.56693396  0.82452429     0.05500
C1146       C  0.18246819  0.56280501  0.80477892    -0.09000
C1147       C  0.19175266  0.57302356  0.77757907     0.06300
C1148       C  0.19228262  0.58731181  0.77124883    -0.13400
Br1149     Br  0.21485845  0.61933815  0.82822775    -0.05500
Br1150     Br  0.15752040  0.62445467  0.74916931     0.00100
Br1151     Br  0.15758547  0.55200695  0.85605070     0.00600
Br1152     Br  0.20376183  0.60066536  0.73260855    -0.03800
Br1153     Br  0.21181355  0.65083553  0.83922015     0.00700
Br1154     Br  0.15894826  0.59184692  0.74323851    -0.03100
Br1155     Br  0.16408529  0.58801700  0.84998733    -0.04000
Br1156     Br  0.20435233  0.56806120  0.74966150     0.00000
C1157       C  0.21857712  0.51588093  0.81382074     0.01400
C1158       C  0.21801448  0.50432837  0.79267683     0.04300
C1159       C  0.23149895  0.50317533  0.78909272    -0.11800
C1160       C  0.24536207  0.51305337  0.80775665     0.23500
C1161       C  0.24588919  0.52443193  0.82922785    -0.12400
C1162       C  0.23259451  0.52591696  0.83212604     0.05000
C1163       C  0.25910698  0.51091160  0.80652872     0.27400
C1164       C  0.25979594  0.50001217  0.82911061    -0.13100
C1165       C  0.27336938  0.49888765  0.83041495     0.05500
C1166       C  0.28622702  0.50843139  0.80849325    -0.09000
C1167       C  0.28523255  0.51888304  0.78481256     0.06300
C1168       C  0.27177338  0.52022763  0.78413531    -0.13400
Br1169     Br  0.26481184  0.53773522  0.85531293    -0.05500
Br1170     Br  0.19886665  0.49007691  0.76840886     0.00100
Br1171     Br  0.27477833  0.48528855  0.86460261     0.00600
Br1172     Br  0.27079293  0.53514448  0.75325020    -0.03800
Br1173     Br  0.23329151  0.54090316  0.86348208     0.00700
Br1174     Br  0.23116568  0.48815180  0.75849266    -0.03100
Br1175     Br  0.24228716  0.48705072  0.85927315    -0.04000
Br1176     Br  0.30213150  0.53117795  0.75269292     0.00000
C1177       C  0.32891169  0.50627651  0.11262629     0.01400
C1178       C  0.34110702  0.51886829  0.09329513     0.04300
C1179       C  0.34094004  0.51842862  0.05729149    -0.11800
C1180       C  0.32872305  0.50536060  0.04029237     0.23500
C1181       C  0.31688131  0.49254698  0.05941175    -0.12400
C1182       C  0.31701211  0.49292708  0.09549219     0.05000
C1183       C  0.32796531  0.50536178  0.00225847     0.27400
C1184       C  0.32130808  0.51313893  0.98490378    -0.13100
C1185       C  0.32060152  0.51328032  0.94891480     0.05500
C1186       C  0.32639165  0.50547291  0.93007545    -0.09000
C1187       C  0.33302226  0.49764454  0.94741719     0.06300
C1188       C  0.33384777  0.49763766  0.98347205    -0.13400
Br1189     Br  0.30016096  0.47474124  0.03573815    -0.05500
Br1190     Br  0.35864052  0.53648779  0.11582205     0.00100
Br1191     Br  0.31136396  0.52394008  0.92550312     0.00600
Br1192     Br  0.34338540  0.48740396  0.00724792    -0.03800
Br1193     Br  0.30040240  0.47541032  0.12093856     0.00700
Br1194     Br  0.35731954  0.53587126  0.03099312    -0.03100
Br1195     Br  0.31320486  0.52366689  0.01061072    -0.04000
Br1196     Br  0.34200522  0.48789339  0.92181917     0.00000
C1197       C  0.19050173  0.56630330  0.25046405     0.01400
C1198       C  0.20070242  0.57967990  0.23013667     0.04300
C1199       C  0.20157732  0.59403076  0.23519782    -0.11800
C1200       C  0.19146282  0.59481811  0.25881765     0.23500
C1201       C  0.18214537  0.58185655  0.28083947    -0.12400
C1202       C  0.18194616  0.56771857  0.27723435     0.05000
C1203       C  0.18834190  0.60786158  0.25534892     0.27400
C1204       C  0.19537068  0.62072993  0.27744429    -0.13100
C1205       C  0.19264410  0.63320699  0.27238382     0.05500
C1206       C  0.18303597  0.63293709  0.24475591    -0.09000
C1207       C  0.17578447  0.61982848  0.22316427     0.06300
C1208       C  0.17836872  0.60735983  0.22858733    -0.13400
Br1209     Br  0.16872714  0.58314760  0.31405513    -0.05500
Br1210     Br  0.21311201  0.57831925  0.19440697     0.00100
Br1211     Br  0.20148863  0.65018924  0.30438057     0.00600
Br1212     Br  0.16840222  0.58953060  0.19874572    -0.03800
Br1213     Br  0.16873159  0.54993611  0.30691097     0.00700
Br1214     Br  0.21589192  0.61250673  0.20837858    -0.03100
Br1215     Br  0.20884416  0.62127587  0.31433638    -0.04000
Br1216     Br  0.16295186  0.61905362  0.18447240     0.00000
C1217       C  0.17978445  0.51824124  0.11745950     0.01400
C1218       C  0.19249666  0.52976872  0.09714713     0.04300
C1219       C  0.19203202  0.52843805  0.06127901    -0.11800
C1220       C  0.17910290  0.51555857  0.04540980     0.23500
C1221       C  0.16651144  0.50401462  0.06540074    -0.12400
C1222       C  0.16668569  0.50549708  0.10120496     0.05000
C1223       C  0.17818788  0.51478803  0.00745847     0.27400
C1224       C  0.17072523  0.52153853  0.98919871    -0.13100
C1225       C  0.16991834  0.52104430  0.95325741     0.05500
C1226       C  0.17713056  0.51440079  0.93530884    -0.09000
C1227       C  0.18465181  0.50768290  0.95347819     0.06300
C1228       C  0.18499695  0.50768394  0.98959069    -0.13400
Br1229     Br  0.14891680  0.48632311  0.04329013    -0.05500
Br1230     Br  0.21081596  0.54731954  0.11776273     0.00100
Br1231     Br  0.15926876  0.52984796  0.92851215     0.00600
Br1232     Br  0.19509499  0.49835212  0.01470625    -0.03800
Br1233     Br  0.14816012  0.49071794  0.12710804     0.00700
Br1234     Br  0.20901411  0.54444573  0.03343095    -0.03100
Br1235     Br  0.16229320  0.53214221  0.01350594    -0.04000
Br1236     Br  0.19458638  0.49867239  0.92873962     0.00000
C1237       C  0.28728980  0.50849755  0.23532502     0.01400
C1238       C  0.28609095  0.51826035  0.25926924     0.04300
C1239       C  0.27202339  0.51848156  0.26170806    -0.11800
C1240       C  0.25922657  0.50943805  0.23956742     0.23500
C1241       C  0.26024223  0.49954050  0.21607855    -0.12400
C1242       C  0.27405477  0.49880856  0.21439757     0.05000
C1243       C  0.24528460  0.51138451  0.23892445     0.27400
C1244       C  0.23197402  0.50176948  0.25959258    -0.13100
C1245       C  0.21889077  0.50380415  0.25873333     0.05500
C1246       C  0.21908997  0.51555484  0.23724020    -0.09000
C1247       C  0.23244590  0.52507755  0.21639211     0.06300
C1248       C  0.24542284  0.52297244  0.21725049    -0.13400
Br1249     Br  0.24290917  0.48766754  0.18484393    -0.05500
Br1250     Br  0.30356745  0.53134702  0.28923252     0.00100
Br1251     Br  0.20102643  0.49085700  0.28806933     0.00600
Br1252     Br  0.26340441  0.53579230  0.18804539    -0.03800
Br1253     Br  0.27495619  0.48524519  0.18141497     0.00700
Br1254     Br  0.27027291  0.53148772  0.29488755    -0.03100
Br1255     Br  0.23176209  0.48580721  0.28897872    -0.04000
Br1256     Br  0.23280755  0.54047494  0.18473597     0.00000
C1257       C  0.49491789  0.86228896  0.75677631     0.01400
C1258       C  0.48877366  0.87176576  0.76496343     0.04300
C1259       C  0.49396961  0.88601263  0.74709342    -0.11800
C1260       C  0.50492882  0.89061251  0.72029952     0.23500
C1261       C  0.51145564  0.88142138  0.71282839    -0.12400
C1262       C  0.50644823  0.86724408  0.73105856     0.05000
C1263       C  0.50840634  0.90423988  0.69780076     0.27400
C1264       C  0.49930997  0.90185835  0.66831145    -0.13100
C1265       C  0.50182023  0.91474075  0.64742322     0.05500
C1266       C  0.51382843  0.93070544  0.65589362    -0.09000
C1267       C  0.52500212  0.93196115  0.68220948     0.06300
C1268       C  0.52128194  0.91915591  0.70459186    -0.13400
Br1269     Br  0.52697379  0.88818174  0.67700770    -0.05500
Br1270     Br  0.47206441  0.86463201  0.79833837     0.00100
Br1271     Br  0.48717874  0.90912063  0.60968736     0.00600
Br1272     Br  0.53436781  0.92160108  0.74422273    -0.03800
Br1273     Br  0.51546088  0.85472546  0.72096461     0.00700
Br1274     Br  0.48575503  0.89900890  0.75894804    -0.03100
Br1275     Br  0.48251706  0.88058042  0.65820506    -0.04000
Br1276     Br  0.54724610  0.94847985  0.68470702     0.00000
C1277       C  0.36223920  0.82384419  0.78715375     0.01400
C1278       C  0.37714532  0.83562729  0.79967018     0.04300
C1279       C  0.39024225  0.83376642  0.79801588    -0.11800
C1280       C  0.38867038  0.82029960  0.78325875     0.23500
C1281       C  0.37397350  0.80874919  0.76978783    -0.12400
C1282       C  0.36076993  0.81047310  0.77173710     0.05000
C1283       C  0.40230940  0.81795604  0.78399340     0.27400
C1284       C  0.41395240  0.82476769  0.75831017    -0.13100
C1285       C  0.42763034  0.82379085  0.76104553     0.05500
C1286       C  0.42964657  0.81589580  0.78950902    -0.09000
C1287       C  0.41772230  0.80872570  0.81463331     0.06300
C1288       C  0.40414851  0.80979442  0.81190531    -0.13400
Br1289     Br  0.37189798  0.79029677  0.74974574    -0.05500
Br1290     Br  0.38000677  0.85476334  0.81791440     0.00100
Br1291     Br  0.44411072  0.83449208  0.72728861     0.00600
Br1292     Br  0.38826507  0.80062696  0.84721054    -0.03800
Br1293     Br  0.34055455  0.79395633  0.75519924     0.00700
Br1294     Br  0.41036163  0.84946294  0.81688148    -0.03100
Br1295     Br  0.41137809  0.83604894  0.72029171    -0.04000
Br1296     Br  0.41985166  0.79728054  0.85292383     0.00000
C1297       C  0.36809924  0.55324525  0.80382477     0.01400
C1298       C  0.36654014  0.56646110  0.79884194     0.04300
C1299       C  0.38010133  0.58162251  0.79719627    -0.11800
C1300       C  0.39520032  0.58361701  0.80035253     0.23500
C1301       C  0.39679253  0.57043638  0.80426426    -0.12400
C1302       C  0.38327945  0.55525644  0.80573886     0.05000
C1303       C  0.40941675  0.59961708  0.80108153     0.27400
C1304       C  0.41785694  0.60686497  0.77076657    -0.13100
C1305       C  0.43174787  0.62181891  0.77185334     0.05500
C1306       C  0.43716941  0.62955474  0.80334058    -0.09000
C1307       C  0.42829604  0.62248648  0.83343040     0.06300
C1308       C  0.41459604  0.60745202  0.83236766    -0.13400
Br1309     Br  0.41754612  0.57330941  0.80885685    -0.05500
Br1310     Br  0.34592749  0.56410249  0.79677801     0.00100
Br1311     Br  0.44370686  0.63122027  0.73050678     0.00600
Br1312     Br  0.40305984  0.59731084  0.87391394    -0.03800
Br1313     Br  0.38568996  0.53724696  0.80948574     0.00700
Br1314     Br  0.37807982  0.59980386  0.79223193    -0.03100
Br1315     Br  0.41052621  0.59596144  0.72807490    -0.04000
Br1316     Br  0.43436255  0.63364177  0.87596395     0.00000
C1317       C  0.48176112  0.71370769  0.79039094     0.01400
C1318       C  0.47196700  0.71738427  0.80871415     0.04300
C1319       C  0.47312689  0.73194143  0.80316270    -0.11800
C1320       C  0.48418428  0.74304549  0.77969147     0.23500
C1321       C  0.49383215  0.73940041  0.76103450    -0.12400
C1322       C  0.49260778  0.72475435  0.76625250     0.05000
C1323       C  0.48562055  0.75859777  0.77573553     0.27400
C1324       C  0.47510156  0.76032107  0.75403302    -0.13100
C1325       C  0.47382582  0.77367971  0.75622548     0.05500
C1326       C  0.48283821  0.78521616  0.78065802    -0.09000
C1327       C  0.49426004  0.78404772  0.80053759     0.06300
C1328       C  0.49576965  0.77084292  0.79767494    -0.13400
Br1329     Br  0.50865492  0.75450439  0.72830437    -0.05500
Br1330     Br  0.45757007  0.70309666  0.84322937     0.00100
Br1331     Br  0.45975391  0.77618624  0.72564771     0.00600
Br1332     Br  0.51106421  0.76895687  0.82530273    -0.03800
Br1333     Br  0.50535284  0.71966675  0.73908961     0.00700
Br1334     Br  0.45964912  0.73689577  0.82807782    -0.03100
Br1335     Br  0.46179989  0.74386474  0.72280255    -0.04000
Br1336     Br  0.50672366  0.79955393  0.83441350     0.00000
C1337       C  0.50928591  0.86381043  0.25667583     0.01400
C1338       C  0.50080038  0.86390385  0.28519858     0.04300
C1339       C  0.50622885  0.87778323  0.30341773    -0.11800
C1340       C  0.52008889  0.89186769  0.29307235     0.23500
C1341       C  0.52908020  0.89154074  0.26583014    -0.12400
C1342       C  0.52360120  0.87763450  0.24738016     0.05000
C1343       C  0.52507705  0.90693492  0.31070581     0.27400
C1344       C  0.52358992  0.91880983  0.29433039    -0.13100
C1345       C  0.52650376  0.93220819  0.31249525     0.05500
C1346       C  0.53014173  0.93367201  0.34862554    -0.09000
C1347       C  0.53474277  0.92291531  0.36197112     0.06300
C1348       C  0.53148458  0.90945974  0.34373020    -0.13400
Br1349     Br  0.54908094  0.91013674  0.25425539    -0.05500
Br1350     Br  0.48085452  0.84537122  0.29807042     0.00100
Br1351     Br  0.52478280  0.94767573  0.28576185     0.00600
Br1352     Br  0.53565898  0.89395186  0.36392995    -0.03800
Br1353     Br  0.53590294  0.87752307  0.20979167     0.00700
Br1354     Br  0.49445025  0.87710189  0.34279274    -0.03100
Br1355     Br  0.51549464  0.91561274  0.24778919    -0.04000
Br1356     Br  0.54762004  0.92624096  0.40211842     0.00000
C1357       C  0.44103057  0.82029734  0.21077692     0.01400
C1358       C  0.42696600  0.80543707  0.20818916     0.04300
C1359       C  0.41216705  0.80427755  0.20699038    -0.11800
C1360       C  0.41130485  0.81790435  0.20846830     0.23500
C1361       C  0.42523631  0.83263525  0.21275412    -0.12400
C1362       C  0.44004305  0.83385286  0.21396866     0.05000
C1363       C  0.39593406  0.81701808  0.20353826     0.27400
C1364       C  0.39065826  0.81773807  0.17017644    -0.13100
C1365       C  0.37696499  0.81848836  0.16527874     0.05500
C1366       C  0.36871016  0.81904664  0.19377707    -0.09000
C1367       C  0.37374653  0.81783945  0.22723716     0.06300
C1368       C  0.38713317  0.81649677  0.23200101    -0.13400
Br1369     Br  0.42395289  0.85122723  0.21599406    -0.05500
Br1370     Br  0.42783667  0.78668145  0.20371200     0.00100
Br1371     Br  0.36924093  0.81812588  0.11935737     0.00600
Br1372     Br  0.39364379  0.81412992  0.27748351    -0.03800
Br1373     Br  0.45889430  0.85414643  0.22088466     0.00700
Br1374     Br  0.39300978  0.78409483  0.20208173    -0.03100
Br1375     Br  0.40243799  0.81798057  0.13111833    -0.04000
Br1376     Br  0.36322722  0.81931286  0.26680410     0.00000
C1377       C  0.48567035  0.82476793  0.09153103     0.01400
C1378       C  0.49894740  0.82711841  0.07335001     0.04300
C1379       C  0.49843172  0.82639442  0.03737988    -0.11800
C1380       C  0.48475212  0.82347144  0.01944539     0.23500
C1381       C  0.47175876  0.82181612  0.03737313    -0.12400
C1382       C  0.47222268  0.82254614  0.07331620     0.05000
C1383       C  0.48418610  0.82266233  0.98156775     0.27400
C1384       C  0.48824541  0.83620464  0.96162210    -0.13100
C1385       C  0.48672299  0.83530202  0.92577021     0.05500
C1386       C  0.48128160  0.82082313  0.90967699    -0.09000
C1387       C  0.47789930  0.80741490  0.92963929     0.06300
C1388       C  0.47930790  0.80833685  0.96556463    -0.13400
Br1389     Br  0.45342190  0.81882507  0.01243819    -0.05500
Br1390     Br  0.51782935  0.83105866  0.09727339     0.00100
Br1391     Br  0.49121688  0.85380713  0.89923248     0.00600
Br1392     Br  0.47460421  0.79003523  0.99306698    -0.03800
Br1393     Br  0.45487238  0.82172753  0.09714976     0.00700
Br1394     Br  0.51647588  0.82950743  0.01234407    -0.03100
Br1395     Br  0.49574464  0.85596044  0.98376249    -0.04000
Br1396     Br  0.47204280  0.78796962  0.90779616     0.00000
C1397       C  0.44239191  0.62925156  0.23195603     0.01400
C1398       C  0.42926267  0.62902606  0.24614358     0.04300
C1399       C  0.41483672  0.61464178  0.25078683    -0.11800
C1400       C  0.41333086  0.60047532  0.24054939     0.23500
C1401       C  0.42659091  0.60061293  0.22774953    -0.12400
C1402       C  0.44113744  0.61487925  0.22412942     0.05000
C1403       C  0.39761899  0.58559123  0.24065804     0.27400
C1404       C  0.39373707  0.57392974  0.26638412    -0.13100
C1405       C  0.37974188  0.55907866  0.26372363     0.05500
C1406       C  0.36924905  0.55609082  0.23608947    -0.09000
C1407       C  0.37266731  0.56812439  0.21161863     0.06300
C1408       C  0.38697394  0.58266469  0.21340381    -0.13400
Br1409     Br  0.42460016  0.58122892  0.21378781    -0.05500
Br1410     Br  0.43051750  0.64840331  0.25697581     0.00100
Br1411     Br  0.37569166  0.54244405  0.29616946     0.00600
Br1412     Br  0.39237472  0.59832515  0.17746330    -0.03800
Br1413     Br  0.45947665  0.61452544  0.20966097     0.00700
Br1414     Br  0.39689176  0.61427250  0.27017017    -0.03100
Br1415     Br  0.40790824  0.57819858  0.30457863    -0.04000
Br1416     Br  0.35754181  0.56487095  0.17599819     0.00000
C1417       C  0.48656067  0.67415993  0.10074410     0.01400
C1418       C  0.47990030  0.66012315  0.08242465     0.04300
C1419       C  0.48000305  0.66065893  0.04642075    -0.11800
C1420       C  0.48721334  0.67526876  0.02875566     0.23500
C1421       C  0.49413993  0.68931758  0.04713285    -0.12400
C1422       C  0.49359678  0.68875157  0.08313541     0.05000
C1423       C  0.48678154  0.67583278  0.99083537     0.27400
C1424       C  0.49916528  0.67684392  0.97166806    -0.13100
C1425       C  0.49845864  0.67691382  0.93558325     0.05500
C1426       C  0.48533008  0.67614214  0.91854929    -0.09000
C1427       C  0.47329876  0.67585592  0.93812751     0.06300
C1428       C  0.47393897  0.67546497  0.97407807    -0.13400
Br1429     Br  0.50405230  0.70926163  0.02275008    -0.05500
Br1430     Br  0.47095176  0.64019800  0.10679512     0.00100
Br1431     Br  0.51524810  0.67735638  0.91028881     0.00600
Br1432     Br  0.45715416  0.67435748  0.00073498    -0.03800
Br1433     Br  0.50158480  0.70783192  0.10831320     0.00700
Br1434     Br  0.46990661  0.64141272  0.02121053    -0.03100
Br1435     Br  0.51700350  0.67797611  0.99525495    -0.04000
Br1436     Br  0.45622605  0.67692982  0.91634439     0.00000
C1437       C  0.48838901  0.71419057  0.22166306     0.01400
C1438       C  0.47569069  0.71616955  0.21189631     0.04300
C1439       C  0.47730688  0.73103864  0.21357641    -0.11800
C1440       C  0.49157358  0.74411648  0.22487615     0.23500
C1441       C  0.50415708  0.74221697  0.23521311    -0.12400
C1442       C  0.50264638  0.72736385  0.23359672     0.05000
C1443       C  0.49353536  0.75999655  0.22330513     0.27400
C1444       C  0.49854527  0.76895138  0.19257600    -0.13100
C1445       C  0.49819200  0.78286479  0.18891412     0.05500
C1446       C  0.49305458  0.78808778  0.21627699    -0.09000
C1447       C  0.48912688  0.77966996  0.24786732     0.06300
C1448       C  0.48923550  0.76560035  0.25126315    -0.13400
Br1449     Br  0.52360545  0.76018872  0.25093414    -0.05500
Br1450     Br  0.45631424  0.69898615  0.19336367     0.00100
Br1451     Br  0.50351011  0.79386929  0.14525837     0.00600
Br1452     Br  0.48310736  0.75371437  0.29386169    -0.03800
Br1453     Br  0.52016669  0.72528728  0.24842340     0.00700
Br1454     Br  0.46014964  0.73378169  0.19906828    -0.03100
Br1455     Br  0.50528512  0.76166367  0.15499587    -0.04000
Br1456     Br  0.48403621  0.78764965  0.28686569     0.00000
C1457       C  0.07120212  0.48330861  0.37262815     0.01400
C1458       C  0.08799264  0.49358572  0.37918389     0.04300
C1459       C  0.09963162  0.49482084  0.35684216    -0.11800
C1460       C  0.09540996  0.48589498  0.32741197     0.23500
C1461       C  0.07945004  0.47551314  0.32001441    -0.12400
C1462       C  0.06737338  0.47464984  0.34081322     0.05000
C1463       C  0.10814439  0.48835925  0.30352668     0.27400
C1464       C  0.11296413  0.49973430  0.27686162    -0.13100
C1465       C  0.12718703  0.50487682  0.25936279     0.05500
C1466       C  0.13670632  0.49855694  0.26811301    -0.09000
C1467       C  0.13141483  0.48652228  0.29361790     0.06300
C1468       C  0.11708924  0.48135440  0.31096510    -0.13400
Br1469     Br  0.07452738  0.46286562  0.27959086    -0.05500
Br1470     Br  0.09672964  0.50610664  0.41908944     0.00100
Br1471     Br  0.13431555  0.52197101  0.22608971     0.00600
Br1472     Br  0.10992033  0.46522041  0.34637127    -0.03800
Br1473     Br  0.04686236  0.46356719  0.31848568     0.00700
Br1474     Br  0.12204664  0.50887462  0.36637667    -0.03100
Br1475     Br  0.10054708  0.50902808  0.26561113    -0.04000
Br1476     Br  0.14373463  0.47717346  0.30528244     0.00000
C1477       C  0.07160116  0.47620484  0.67498526     0.01400
C1478       C  0.07487656  0.46364817  0.67635114     0.04300
C1479       C  0.08757320  0.46488581  0.69619856    -0.11800
C1480       C  0.09712549  0.47824727  0.71547227     0.23500
C1481       C  0.09474211  0.49083213  0.71362322    -0.12400
C1482       C  0.08391449  0.49082093  0.69006850     0.05000
C1483       C  0.11117923  0.48036373  0.73445881     0.27400
C1484       C  0.11036325  0.47753943  0.76998697    -0.13100
C1485       C  0.12430708  0.48320143  0.78946360     0.05500
C1486       C  0.13928525  0.49229637  0.77338400    -0.09000
C1487       C  0.13996179  0.49408285  0.73730201     0.06300
C1488       C  0.12594580  0.48796857  0.71787643    -0.13400
Br1489     Br  0.10751834  0.50893603  0.74201025    -0.05500
Br1490     Br  0.06280222  0.44424361  0.65201472     0.00100
Br1491     Br  0.12275701  0.47850962  0.83797362     0.00600
Br1492     Br  0.12683858  0.49120661  0.66873817    -0.03800
Br1493     Br  0.09108075  0.51222348  0.67326339     0.00700
Br1494     Br  0.09194870  0.44810565  0.69821907    -0.03100
Br1495     Br  0.09002364  0.46713183  0.79218305    -0.04000
Br1496     Br  0.15992820  0.50640850  0.71375864     0.00000
C1497       C  0.05786445  0.47653292  0.43523209     0.01400
C1498       C  0.06654010  0.46920126  0.44749092     0.04300
C1499       C  0.06528830  0.46394664  0.48215628    -0.11800
C1500       C  0.05618667  0.46617923  0.50566912     0.23500
C1501       C  0.04613438  0.47120039  0.49364543    -0.12400
C1502       C  0.04657183  0.47600839  0.45924813     0.05000
C1503       C  0.05812248  0.46480460  0.54355073     0.27400
C1504       C  0.04568597  0.45332201  0.56352354    -0.13100
C1505       C  0.04530794  0.45524503  0.59933875     0.05500
C1506       C  0.05787287  0.46930010  0.61590608    -0.09000
C1507       C  0.07232845  0.47729166  0.59608972     0.06300
C1508       C  0.07199886  0.47590045  0.56009259    -0.13400
Br1509     Br  0.03275572  0.47329975  0.52564357    -0.05500
Br1510     Br  0.07944143  0.46419913  0.42000701     0.00100
Br1511     Br  0.02780975  0.43700205  0.62241222     0.00600
Br1512     Br  0.09031756  0.49057490  0.53293205    -0.03800
Br1513     Br  0.03336728  0.48488124  0.45002612     0.00700
Br1514     Br  0.07575859  0.45310577  0.49868649    -0.03100
Br1515     Br  0.02925783  0.43494105  0.54038850    -0.04000
Br1516     Br  0.09331829  0.49072789  0.61408197     0.00000
C1517       C  0.92516535  0.41042081  0.40175116     0.01400
C1518       C  0.90831606  0.40339959  0.40663783     0.04300
C1519       C  0.89720060  0.39226721  0.38354099    -0.11800
C1520       C  0.90217993  0.38703743  0.35637355     0.23500
C1521       C  0.91798323  0.39121929  0.35498360    -0.12400
C1522       C  0.92916221  0.40174381  0.37890813     0.05000
C1523       C  0.89049283  0.37699637  0.32974508     0.27400
C1524       C  0.87894147  0.36117940  0.33743731    -0.13100
C1525       C  0.86564917  0.35291237  0.31587616     0.05500
C1526       C  0.86401510  0.36035865  0.28620713    -0.09000
C1527       C  0.87608899  0.37585672  0.27748086     0.06300
C1528       C  0.88949505  0.38392341  0.29859263    -0.13400
Br1529     Br  0.92399257  0.38179310  0.32040797    -0.05500
Br1530     Br  0.89888566  0.40836817  0.44293814     0.00100
Br1531     Br  0.84957597  0.33152755  0.32735128     0.00600
Br1532     Br  0.90643252  0.40453392  0.28463629    -0.03800
Br1533     Br  0.94778986  0.40002561  0.38339864     0.00700
Br1534     Br  0.87489977  0.38517449  0.38674166    -0.03100
Br1535     Br  0.88129358  0.35107743  0.37799643    -0.04000
Br1536     Br  0.87347616  0.38695991  0.23901996     0.00000
C1537       C  0.95576367  0.43019904  0.41356190     0.01400
C1538       C  0.96221448  0.43634816  0.37969643     0.04300
C1539       C  0.97850578  0.44315738  0.37262333    -0.11800
C1540       C  0.98936506  0.44658040  0.39932373     0.23500
C1541       C  0.98358816  0.44067791  0.43217087    -0.12400
C1542       C  0.96720370  0.43064158  0.43782625     0.05000
C1543       C  0.00678266  0.45526649  0.39245515     0.27400
C1544       C  0.01519812  0.44749602  0.39500963    -0.13100
C1545       C  0.03186652  0.45603382  0.39190677     0.05500
C1546       C  0.04062749  0.47274905  0.38449633    -0.09000
C1547       C  0.03096471  0.47879225  0.37255090     0.06300
C1548       C  0.01480133  0.47099462  0.38098085    -0.13400
Br1549     Br  0.99831873  0.44658126  0.47017253    -0.05500
Br1550     Br  0.94957051  0.43488416  0.34030497     0.00100
Br1551     Br  0.04179295  0.44379946  0.39547254     0.00600
Br1552     Br  0.00391691  0.48238865  0.37752671    -0.03800
Br1553     Br  0.96310550  0.41633673  0.47552350     0.00700
Br1554     Br  0.98622141  0.44745666  0.32590534    -0.03100
Br1555     Br  0.00365703  0.42496989  0.40321421    -0.04000
Br1556     Br  0.03491705  0.49048125  0.33027450     0.00000
C1557       C  0.92783046  0.41678951  0.70458834     0.01400
C1558       C  0.92792650  0.40901397  0.73651844     0.04300
C1559       C  0.91358546  0.39738372  0.75211479    -0.11800
C1560       C  0.89901520  0.39482397  0.74038776     0.23500
C1561       C  0.89845908  0.40311012  0.71149443    -0.12400
C1562       C  0.91231254  0.41352384  0.69304414     0.05000
C1563       C  0.88418876  0.38424920  0.75989563     0.27400
C1564       C  0.87341056  0.36898466  0.74841038    -0.13100
C1565       C  0.85865680  0.35962326  0.76464464     0.05500
C1566       C  0.85460479  0.36545647  0.79275854    -0.09000
C1567       C  0.86567873  0.38055824  0.80498784     0.06300
C1568       C  0.88034004  0.38992258  0.78850811    -0.13400
Br1569     Br  0.87819501  0.40011453  0.69761977    -0.05500
Br1570     Br  0.94608427  0.41584183  0.76653671     0.00100
Br1571     Br  0.84427779  0.33864157  0.74887888     0.00600
Br1572     Br  0.89490873  0.41086486  0.80425814    -0.03800
Br1573     Br  0.90872233  0.42318323  0.65226362     0.00700
Br1574     Br  0.91360808  0.38522445  0.79169347    -0.03100
Br1575     Br  0.87882635  0.36108860  0.70980279    -0.04000
Br1576     Br  0.86053758  0.38912817  0.84293838     0.00000
C1577       C  0.95964629  0.43342763  0.70110516     0.01400
C1578       C  0.97073389  0.44787835  0.71853273     0.04300
C1579       C  0.98622425  0.45139894  0.72686199    -0.11800
C1580       C  0.99195670  0.44251080  0.71361656     0.23500
C1581       C  0.98091785  0.42714090  0.70369627    -0.12400
C1582       C  0.96474215  0.42226784  0.69957352     0.05000
C1583       C  0.00888874  0.45055061  0.70212971     0.27400
C1584       C  0.01360821  0.46112978  0.67439007    -0.13100
C1585       C  0.02696852  0.46491546  0.65569102     0.05500
C1586       C  0.03958475  0.46337938  0.67022356    -0.09000
C1587       C  0.03526151  0.45362735  0.70136015     0.06300
C1588       C  0.01985935  0.44699818  0.71600818    -0.13400
Br1589     Br  0.98834893  0.41362019  0.68988936    -0.05500
Br1590     Br  0.96689862  0.46390765  0.73344313     0.00100
Br1591     Br  0.02607409  0.47137430  0.60913443     0.00600
Br1592     Br  0.01415965  0.43489042  0.75856716    -0.03800
Br1593     Br  0.95070408  0.40051934  0.68882966     0.00700
Br1594     Br  0.00076996  0.46918843  0.75430639    -0.03100
Br1595     Br  0.00357062  0.47291647  0.66389257    -0.04000
Br1596     Br  0.04895821  0.44888789  0.72766577     0.00000
C1597       C  0.94209485  0.42260809  0.64561137     0.01400
C1598       C  0.95463054  0.42946564  0.62056751     0.04300
C1599       C  0.95125318  0.42829334  0.58514931    -0.11800
C1600       C  0.93582163  0.41845010  0.57343628     0.23500
C1601       C  0.92419011  0.40850492  0.59700241    -0.12400
C1602       C  0.92801081  0.40907017  0.63214900     0.05000
C1603       C  0.93245548  0.41810038  0.53607843     0.27400
C1604       C  0.93213431  0.43068636  0.52069819    -0.13100
C1605       C  0.93097641  0.43163621  0.48488198     0.05500
C1606       C  0.93340352  0.42163664  0.46269096    -0.09000
C1607       C  0.92986743  0.40701656  0.47944466     0.06300
C1608       C  0.93034969  0.40578950  0.51572129    -0.13400
Br1609     Br  0.90280284  0.39437605  0.58143559    -0.05500
Br1610     Br  0.97643752  0.43611991  0.62939405     0.00100
Br1611     Br  0.92136908  0.44357748  0.47157450     0.00600
Br1612     Br  0.93019177  0.38804292  0.53773734    -0.03800
Br1613     Br  0.91558163  0.38897211  0.65609567     0.00700
Br1614     Br  0.96794716  0.44010043  0.55187316    -0.03100
Br1615     Br  0.93325896  0.44678904  0.54958782    -0.04000
Br1616     Br  0.92482113  0.38808163  0.45596901     0.00000
C1617       C  0.14290117  0.65764822  0.29493599     0.01400
C1618       C  0.13043915  0.66055329  0.29330821     0.04300
C1619       C  0.11774861  0.65276250  0.31641468    -0.11800
C1620       C  0.11699679  0.64130724  0.33967409     0.23500
C1621       C  0.13006334  0.63936637  0.34311019    -0.12400
C1622       C  0.14298791  0.64752414  0.32081555     0.05000
C1623       C  0.10163883  0.62958898  0.35584142     0.27400
C1624       C  0.09885559  0.63008373  0.39059256    -0.13100
C1625       C  0.08461061  0.61820830  0.40602054     0.05500
C1626       C  0.07348271  0.60422844  0.38742905    -0.09000
C1627       C  0.07537812  0.60603248  0.35049773     0.06300
C1628       C  0.08961802  0.61805844  0.33555654    -0.13400
Br1629     Br  0.13006194  0.62500271  0.37722555    -0.05500
Br1630     Br  0.13042900  0.67467095  0.25858611     0.00100
Br1631     Br  0.08051936  0.62440307  0.44940552     0.00600
Br1632     Br  0.09370023  0.61761294  0.28718989    -0.03800
Br1633     Br  0.15990184  0.64327998  0.32333082     0.00700
Br1634     Br  0.10092892  0.65710441  0.31536221    -0.03100
Br1635     Br  0.11484935  0.64759103  0.41669490    -0.04000
Br1636     Br  0.05947176  0.59330949  0.31725918     0.00000
C1637       C  0.06184803  0.57341421  0.40320739     0.01400
C1638       C  0.05002051  0.55857987  0.41928547     0.04300
C1639       C  0.05009571  0.54464868  0.41511541    -0.11800
C1640       C  0.06322114  0.54521027  0.40143632     0.23500
C1641       C  0.07598929  0.55952289  0.38978602    -0.12400
C1642       C  0.07505098  0.57322124  0.38808191     0.05000
C1643       C  0.06392720  0.53071633  0.40088948     0.27400
C1644       C  0.06653600  0.52467233  0.43128651    -0.13100
C1645       C  0.06714231  0.51081777  0.43115011     0.05500
C1646       C  0.06378799  0.50189652  0.39971654    -0.09000
C1647       C  0.06553896  0.51102610  0.36909622     0.06300
C1648       C  0.06362733  0.52402839  0.36978534    -0.13400
Br1649     Br  0.09513271  0.55996811  0.37695422    -0.05500
Br1650     Br  0.03235729  0.55547082  0.44587044     0.00100
Br1651     Br  0.07466623  0.50721170  0.47496121     0.00600
Br1652     Br  0.06052252  0.53286597  0.32764156    -0.03800
Br1653     Br  0.09338832  0.59051628  0.36658783     0.00700
Br1654     Br  0.03180065  0.52420535  0.42684647    -0.03100
Br1655     Br  0.06924916  0.53583098  0.47346588    -0.04000
Br1656     Br  0.07366697  0.50903067  0.32607577     0.00000
C1657       C  0.05930728  0.58623034  0.68862965     0.01400
C1658       C  0.07524104  0.59509584  0.67390670     0.04300
C1659       C  0.08806599  0.60761487  0.69153212    -0.11800
C1660       C  0.08611201  0.61173956  0.72415259     0.23500
C1661       C  0.07115636  0.60356977  0.73921034    -0.12400
C1662       C  0.05835622  0.59026303  0.72342655     0.05000
C1663       C  0.10039414  0.62275349  0.74486781     0.27400
C1664       C  0.10642218  0.61648544  0.76925926    -0.13100
C1665       C  0.12081590  0.62635477  0.78625288     0.05500
C1666       C  0.12941028  0.64276665  0.77933273    -0.09000
C1667       C  0.12322335  0.64909942  0.75529408     0.06300
C1668       C  0.10870328  0.63914185  0.73844493    -0.13400
Br1669     Br  0.06869665  0.61075032  0.78300211    -0.05500
Br1670     Br  0.08183236  0.59045475  0.63089654     0.00100
Br1671     Br  0.12918359  0.61678808  0.81680101     0.00600
Br1672     Br  0.10021034  0.64785086  0.70607988    -0.03800
Br1673     Br  0.04095289  0.57777855  0.75394228     0.00700
Br1674     Br  0.10912261  0.61908268  0.67177316    -0.03100
Br1675     Br  0.09514096  0.59410596  0.77873087    -0.04000
Br1676     Br  0.13443473  0.67141475  0.74548264     0.00000
C1677       C  0.05748407  0.49113643  0.65649709     0.01400
C1678       C  0.05724347  0.50065198  0.62805091     0.04300
C1679       C  0.05235466  0.51146570  0.63301770    -0.11800
C1680       C  0.05330765  0.51740522  0.66551037     0.23500
C1681       C  0.05698666  0.51083180  0.69344740    -0.12400
C1682       C  0.05636830  0.49652273  0.69004094     0.05000
C1683       C  0.05163057  0.53123279  0.67030166     0.27400
C1684       C  0.06291265  0.54601910  0.65643668    -0.13100
C1685       C  0.06319811  0.55928116  0.66804416     0.05500
C1686       C  0.04890846  0.55788967  0.67825877    -0.09000
C1687       C  0.03982551  0.54404020  0.69981714     0.06300
C1688       C  0.04047441  0.53042183  0.69355004    -0.13400
Br1689     Br  0.06424326  0.52225466  0.73585898    -0.05500
Br1690     Br  0.06455636  0.50187409  0.58229767     0.00100
Br1691     Br  0.07998768  0.56860789  0.70177518     0.00600
Br1692     Br  0.02481185  0.51026849  0.71338642    -0.03800
Br1693     Br  0.05557329  0.48629483  0.73349557     0.00700
Br1694     Br  0.04415901  0.51816578  0.59521404    -0.03100
Br1695     Br  0.08120066  0.54909239  0.63251510    -0.04000
Br1696     Br  0.02617279  0.54181901  0.73693021     0.00000
C1697       C  0.04587301  0.57600243  0.62867880     0.01400
C1698       C  0.05317118  0.59167810  0.61299460     0.04300
C1699       C  0.05640826  0.59375246  0.57717048    -0.11800
C1700       C  0.05240400  0.58072053  0.55680731     0.23500
C1701       C  0.04406990  0.56568407  0.57211750    -0.12400
C1702       C  0.03737880  0.56415874  0.60429451     0.05000
C1703       C  0.05435439  0.58281903  0.51878750     0.27400
C1704       C  0.04414357  0.58585467  0.49952429    -0.13100
C1705       C  0.04728772  0.59074387  0.46475828     0.05500
C1706       C  0.05938697  0.59006751  0.44614702    -0.09000
C1707       C  0.07061776  0.58865388  0.46782850     0.06300
C1708       C  0.06772621  0.58452800  0.50307250    -0.13400
Br1709     Br  0.03644807  0.54721921  0.54523938    -0.05500
Br1710     Br  0.06001461  0.61109662  0.63618971     0.00100
Br1711     Br  0.03936746  0.60416017  0.45253771     0.00600
Br1712     Br  0.08215774  0.58118578  0.53068336    -0.03800
Br1713     Br  0.01642264  0.56029958  0.59453792     0.00700
Br1714     Br  0.06683828  0.61445875  0.55539667    -0.03100
Br1715     Br  0.02616224  0.58443870  0.52218764    -0.04000
Br1716     Br  0.09134780  0.59439090  0.45225260     0.00000
C1717       C  0.92926049  0.53163594  0.37335650     0.01400
C1718       C  0.91989462  0.51865651  0.35018067     0.04300
C1719       C  0.91003689  0.51954690  0.32485757    -0.11800
C1720       C  0.90505235  0.53017861  0.32778396     0.23500
C1721       C  0.91223735  0.54193412  0.35200894    -0.12400
C1722       C  0.92491387  0.54349646  0.37248369     0.05000
C1723       C  0.89094596  0.52762252  0.30782115     0.27400
C1724       C  0.89257313  0.53374602  0.27424396    -0.13100
C1725       C  0.87907740  0.52948200  0.25383856     0.05500
C1726       C  0.86374403  0.51867506  0.26678286    -0.09000
C1727       C  0.86221121  0.51291998  0.30089435     0.06300
C1728       C  0.87571468  0.51756107  0.32140272    -0.13400
Br1729     Br  0.90444496  0.55602718  0.35643825    -0.05500
Br1730     Br  0.91428224  0.49696141  0.35581324     0.00100
Br1731     Br  0.88175392  0.53855959  0.20836481     0.00600
Br1732     Br  0.87343451  0.50944989  0.36776128    -0.03800
Br1733     Br  0.93600075  0.56298733  0.39631068     0.00700
Br1734     Br  0.90159892  0.50487163  0.28740900    -0.03100
Br1735     Br  0.91347082  0.54731902  0.25573098    -0.04000
Br1736     Br  0.84180592  0.49720199  0.31922798     0.00000
C1737       C  0.94154550  0.51596889  0.40186343     0.01400
C1738       C  0.93418285  0.50367261  0.42807248     0.04300
C1739       C  0.93099038  0.48851105  0.42201554    -0.11800
C1740       C  0.93981952  0.48614510  0.39823255     0.23500
C1741       C  0.94919035  0.49830840  0.37499145    -0.12400
C1742       C  0.94876817  0.51230682  0.37428024     0.05000
C1743       C  0.94020228  0.47136458  0.40006068     0.27400
C1744       C  0.95169466  0.47082042  0.42012036    -0.13100
C1745       C  0.95081388  0.45640271  0.42717413     0.05500
C1746       C  0.93869342  0.44174367  0.41184886    -0.09000
C1747       C  0.92836015  0.44346579  0.38740914     0.06300
C1748       C  0.92882990  0.45790540  0.38329129    -0.13400
Br1749     Br  0.96130839  0.49483590  0.34189799    -0.05500
Br1750     Br  0.93244278  0.50557799  0.47667880     0.00100
Br1751     Br  0.96522530  0.45790891  0.46324176     0.00600
Br1752     Br  0.91383181  0.45980747  0.35400381    -0.03800
Br1753     Br  0.95558531  0.52380019  0.33120819     0.00700
Br1754     Br  0.91370702  0.47090274  0.44577838    -0.03100
Br1755     Br  0.96830962  0.49028778  0.43983085    -0.04000
Br1756     Br  0.91394454  0.42814610  0.35529425     0.00000
C1757       C  0.96004044  0.54491451  0.39313092     0.01400
C1758       C  0.97193367  0.54554574  0.41624808     0.04300
C1759       C  0.98790881  0.55709803  0.41267665    -0.11800
C1760       C  0.99357498  0.56524190  0.38187618     0.23500
C1761       C  0.98283917  0.56421336  0.35677798    -0.12400
C1762       C  0.96626436  0.55542731  0.36323984     0.05000
C1763       C  0.01074357  0.57249931  0.37516774     0.27400
C1764       C  0.02144947  0.58867095  0.37816105    -0.13100
C1765       C  0.03786445  0.59450754  0.38109538     0.05500
C1766       C  0.04331493  0.58375308  0.38627150    -0.09000
C1767       C  0.03289478  0.56864197  0.37095994     0.06300
C1768       C  0.01658297  0.56268955  0.36909778    -0.13400
Br1769     Br  0.99126802  0.57419943  0.31265469    -0.05500
Br1770     Br  0.96815408  0.53161896  0.45462214     0.00100
Br1771     Br  0.05179107  0.61710893  0.37501257     0.00600
Br1772     Br  0.00200905  0.54070054  0.35980983    -0.03800
Br1773     Br  0.95389056  0.55734286  0.32666009     0.00700
Br1774     Br  0.00236845  0.56240855  0.45084704    -0.03100
Br1775     Br  0.01340542  0.60253033  0.38146523    -0.04000
Br1776     Br  0.03961608  0.55689610  0.34426827     0.00000
C1777       C  0.91190890  0.52285753  0.67720508     0.01400
C1778       C  0.91423230  0.53400475  0.70308547     0.04300
C1779       C  0.90169409  0.53125210  0.72485186    -0.11800
C1780       C  0.88642057  0.51834405  0.72004718     0.23500
C1781       C  0.88347531  0.50812806  0.69342251    -0.12400
C1782       C  0.89566145  0.51083456  0.67106648     0.05000
C1783       C  0.87293618  0.51578795  0.74136746     0.27400
C1784       C  0.86866091  0.50601201  0.77074712    -0.13100
C1785       C  0.85424956  0.50101035  0.78732904     0.05500
C1786       C  0.84421963  0.50640108  0.77529518    -0.09000
C1787       C  0.84901663  0.51691721  0.74686219     0.06300
C1788       C  0.86319842  0.52141680  0.72965898    -0.13400
Br1789     Br  0.86237623  0.48979704  0.68861543    -0.05500
Br1790     Br  0.93280222  0.55482623  0.70671422     0.00100
Br1791     Br  0.84781312  0.48551102  0.82404089     0.00600
Br1792     Br  0.86909293  0.53478155  0.68913371    -0.03800
Br1793     Br  0.88831639  0.49885090  0.63025768     0.00700
Br1794     Br  0.90518221  0.54507993  0.76220116    -0.03100
Br1795     Br  0.88237660  0.49886185  0.78722496    -0.04000
Br1796     Br  0.83641269  0.52552609  0.73118832     0.00000
C1797       C  0.92229612  0.50523633  0.65881404     0.01400
C1798       C  0.91889345  0.49429519  0.63101401     0.04300
C1799       C  0.92051081  0.48104769  0.63697845    -0.11800
C1800       C  0.92771456  0.47984225  0.66727020     0.23500
C1801       C  0.92978594  0.48977891  0.69419518    -0.12400
C1802       C  0.92311611  0.49908033  0.69131773     0.05000
C1803       C  0.93228276  0.46777613  0.67147863     0.27400
C1804       C  0.92561198  0.45636516  0.69760687    -0.13100
C1805       C  0.93201754  0.44704765  0.70612326     0.05500
C1806       C  0.94184067  0.44503741  0.68214377    -0.09000
C1807       C  0.94904345  0.45743986  0.65652348     0.06300
C1808       C  0.94431175  0.46856164  0.65152990    -0.13400
Br1809     Br  0.93973865  0.48961318  0.73687409    -0.05500
Br1810     Br  0.91224592  0.49537642  0.58421150     0.00100
Br1811     Br  0.92894107  0.44009434  0.75382271     0.00600
Br1812     Br  0.95457301  0.48535259  0.61726120    -0.03800
Br1813     Br  0.90563000  0.49185839  0.72222620     0.00700
Br1814     Br  0.91303517  0.46436641  0.60410241    -0.03100
Br1815     Br  0.90671005  0.45250616  0.72050808    -0.04000
Br1816     Br  0.96827371  0.46341595  0.63408078     0.00000
C1817       C  0.94302387  0.53487848  0.67326805     0.01400
C1818       C  0.95488055  0.54888681  0.65532860     0.04300
C1819       C  0.97102763  0.55406249  0.65896347    -0.11800
C1820       C  0.97616382  0.54786219  0.68527678     0.23500
C1821       C  0.96507961  0.53751775  0.70958515    -0.12400
C1822       C  0.94874528  0.53177623  0.70481020     0.02600
C1823       C  0.99330443  0.55292458  0.68760288     0.27400
C1824       C  0.99817375  0.54301260  0.67608943    -0.13100
C1825       C  0.01429289  0.54877525  0.66923035     0.05500
C1826       C  0.02678427  0.56488550  0.67766153    -0.09000
C1827       C  0.02096473  0.57466508  0.68886303     0.06300
C1828       C  0.00471142  0.56841011  0.69560754    -0.13400
Br1829     Br  0.97250776  0.53153083  0.74985484    -0.05500
Br1830     Br  0.95035416  0.56283154  0.62876517     0.00100
Br1831     Br  0.01684520  0.53357265  0.64337991     0.00600
Br1832     Br  0.99741429  0.58114874  0.71543112    -0.03800
Br1833     Br  0.93645343  0.52513166  0.74632173     0.00700
Br1834     Br  0.98592990  0.56866900  0.62538147    -0.03100
Br1835     Br  0.98209017  0.52117353  0.66852130    -0.04000
Br1836     Br  0.03351125  0.59712659  0.69283880     0.00000
C1837       C  0.93710352  0.53621087  0.43731593     0.01400
C1838       C  0.94729933  0.54999717  0.45807519     0.04300
C1839       C  0.94322925  0.55064101  0.49230656    -0.11800
C1840       C  0.93000485  0.53784758  0.50739725     0.23500
C1841       C  0.91825933  0.52658247  0.48612837    -0.12400
C1842       C  0.92133637  0.52631251  0.45087363     0.05000
C1843       C  0.92942463  0.53555289  0.54553229     0.27400
C1844       C  0.94015377  0.53224752  0.56182498    -0.13100
C1845       C  0.93873914  0.52815013  0.59683650     0.05500
C1846       C  0.92681274  0.52808498  0.61771197    -0.09000
C1847       C  0.91784901  0.53424427  0.60143268     0.06300
C1848       C  0.91885766  0.53728829  0.56556202    -0.13400
Br1849     Br  0.89889035  0.50982588  0.50663040    -0.05500
Br1850     Br  0.96594598  0.56978259  0.44316997     0.00100
Br1851     Br  0.95306992  0.52151759  0.61376517     0.00600
Br1852     Br  0.90695523  0.54555830  0.54343803    -0.03800
Br1853     Br  0.90386905  0.51012000  0.42520352     0.00700
Br1854     Br  0.95555497  0.56899420  0.52036347    -0.03100
Br1855     Br  0.95724645  0.53335993  0.53635249    -0.04000
Br1856     Br  0.90658801  0.54212104  0.62573129     0.00000
C1857       C  0.47509136  0.40795438  0.38111108     0.01400
C1858       C  0.47349286  0.39322710  0.39419105     0.04300
C1859       C  0.47058753  0.38105101  0.37195016    -0.11800
C1860       C  0.47499026  0.38444455  0.33784823     0.23500
C1861       C  0.47887961  0.39904808  0.32407742    -0.12400
C1862       C  0.47829432  0.41033163  0.34443670     0.05000
C1863       C  0.47912722  0.37420927  0.31915617     0.27400
C1864       C  0.49462080  0.37710942  0.32223357    -0.13100
C1865       C  0.49917848  0.36822731  0.30371877     0.05500
C1866       C  0.48814704  0.35601679  0.28260978    -0.09000
C1867       C  0.47255095  0.35290128  0.27994493     0.06300
C1868       C  0.46805464  0.36199687  0.29817041    -0.13400
Br1869     Br  0.48502459  0.40314861  0.27617047    -0.05500
Br1870     Br  0.47944762  0.38845522  0.43856985     0.00100
Br1871     Br  0.52104489  0.37392657  0.30491507     0.00600
Br1872     Br  0.44683796  0.35789337  0.29434086    -0.03800
Br1873     Br  0.48290580  0.42879492  0.31833850     0.00700
Br1874     Br  0.46213249  0.35957363  0.38844863    -0.03100
Br1875     Br  0.50981667  0.39364772  0.35135879    -0.04000
Br1876     Br  0.45731145  0.33603065  0.25174161     0.00000
C1877       C  0.47344712  0.35019457  0.77920273     0.01400
C1878       C  0.47690717  0.36443637  0.79400433     0.04300
C1879       C  0.47486793  0.37538114  0.77472530    -0.11800
C1880       C  0.46830271  0.37173442  0.74140914     0.23500
C1881       C  0.46288075  0.35668068  0.72855382    -0.12400
C1882       C  0.46585986  0.34609576  0.74694394     0.05000
C1883       C  0.46940588  0.38452773  0.71857164     0.27400
C1884       C  0.46056789  0.39132051  0.72561716    -0.13100
C1885       C  0.46541917  0.40657209  0.71313744     0.05500
C1886       C  0.47637295  0.41368919  0.68482610    -0.09000
C1887       C  0.48542375  0.40634618  0.67858390     0.06300
C1888       C  0.48180076  0.39201914  0.69508611    -0.13400
Br1889     Br  0.45234813  0.35115834  0.68466691    -0.05500
Br1890     Br  0.48581956  0.36985727  0.83966284     0.00100
Br1891     Br  0.46032387  0.41791069  0.74480538     0.00600
Br1892     Br  0.49482386  0.38297077  0.68816376    -0.03800
Br1893     Br  0.45960970  0.32605198  0.72790469     0.00700
Br1894     Br  0.48258833  0.39599250  0.79298268    -0.03100
Br1895     Br  0.44231543  0.37992739  0.75504487    -0.04000
Br1896     Br  0.50625967  0.41711203  0.65924414     0.00000
C1897       C  0.47571587  0.42330881  0.62190613     0.01400
C1898       C  0.46111020  0.41767928  0.60264170     0.04300
C1899       C  0.45773583  0.40875480  0.57271406    -0.11800
C1900       C  0.46985488  0.40874527  0.55518881     0.23500
C1901       C  0.48403269  0.41369516  0.57261686    -0.12400
C1902       C  0.48780100  0.42287829  0.60227964     0.05000
C1903       C  0.47070131  0.41138649  0.51691113     0.27400
C1904       C  0.46196896  0.39926724  0.49368635    -0.13100
C1905       C  0.46188105  0.40282124  0.45822167     0.05500
C1906       C  0.47365824  0.41785860  0.44396350    -0.09000
C1907       C  0.48094487  0.43032417  0.46851077     0.06300
C1908       C  0.47923192  0.42696782  0.50400598    -0.13400
Br1909     Br  0.49960945  0.41085713  0.55030435    -0.05500
Br1910     Br  0.44964088  0.42843529  0.59891116     0.00100
Br1911     Br  0.44396545  0.38736685  0.43147372     0.00600
Br1912     Br  0.48717900  0.44424492  0.53526410    -0.03800
Br1913     Br  0.50974281  0.44024898  0.59959783     0.00700
Br1914     Br  0.43687586  0.39874618  0.55189009    -0.03100
Br1915     Br  0.45021328  0.37773669  0.51016743    -0.04000
Br1916     Br  0.49012780  0.45252845  0.45697339     0.00000
C1917       C  0.34515996  0.48589800  0.27740083     0.01400
C1918       C  0.34673469  0.48791370  0.31319779     0.04300
C1919       C  0.35590796  0.48334630  0.33251892    -0.11800
C1920       C  0.36355381  0.47661198  0.31636777     0.23500
C1921       C  0.36036885  0.47277415  0.28157779    -0.12400
C1922       C  0.35124764  0.47738073  0.26202950     0.05000
C1923       C  0.37723639  0.47691015  0.33416578     0.27400
C1924       C  0.39182101  0.49098277  0.33328332    -0.13100
C1925       C  0.40365373  0.49371592  0.35737114     0.05500
C1926       C  0.40339245  0.48082518  0.37635610    -0.09000
C1927       C  0.38815591  0.46635640  0.37661051     0.06300
C1928       C  0.37534364  0.46465398  0.35606169    -0.13400
Br1929     Br  0.36925909  0.46187251  0.26047330    -0.05500
Br1930     Br  0.33764047  0.49824505  0.33627586     0.00100
Br1931     Br  0.41544554  0.51569989  0.37009743     0.00600
Br1932     Br  0.35496738  0.44538047  0.35700529    -0.03800
Br1933     Br  0.34704377  0.47194208  0.21440384     0.00700
Br1934     Br  0.35908888  0.48742100  0.38084723    -0.03100
Br1935     Br  0.39495930  0.50740950  0.30063895    -0.04000
Br1936     Br  0.38348045  0.44856647  0.40588677     0.00000
C1937       C  0.46019307  0.42415774  0.39723764     0.01400
C1938       C  0.45563702  0.43099978  0.42313434     0.04300
C1939       C  0.45116883  0.44185666  0.41494355    -0.11800
C1940       C  0.44526653  0.44223559  0.38198477     0.23500
C1941       C  0.44466382  0.43132224  0.35798467    -0.12400
C1942       C  0.45130535  0.42174457  0.36628472     0.05000
C1943       C  0.43929067  0.45342666  0.37495300     0.27400
C1944       C  0.42351174  0.44832667  0.36541961    -0.13100
C1945       C  0.41808524  0.45906717  0.36450449     0.05500
C1946       C  0.42561227  0.47277426  0.38591527    -0.09000
C1947       C  0.44132471  0.47700543  0.39701083     0.06300
C1948       C  0.44862737  0.46924975  0.38447003    -0.13400
Br1949     Br  0.43849496  0.43194808  0.31118242    -0.05500
Br1950     Br  0.44317514  0.41864938  0.46229014     0.00100
Br1951     Br  0.40302406  0.45500156  0.32823855     0.00600
Br1952     Br  0.47136785  0.48014888  0.38476615    -0.03800
Br1953     Br  0.44366262  0.40290837  0.34062325     0.00700
Br1954     Br  0.45154364  0.45430375  0.45260025    -0.03100
Br1955     Br  0.40809625  0.42632518  0.35968307    -0.04000
Br1956     Br  0.45306936  0.49107674  0.43407076     0.00000
C1957       C  0.40837235  0.48855783  0.68019587     0.01400
C1958       C  0.39396919  0.48511567  0.66206076     0.04300
C1959       C  0.37989725  0.48025245  0.67991465    -0.11800
C1960       C  0.38043712  0.48355921  0.71447910     0.23500
C1961       C  0.39463052  0.48936748  0.73258454    -0.12400
C1962       C  0.40832331  0.49155542  0.71635302     0.05000
C1963       C  0.36729291  0.48451526  0.72953838     0.27400
C1964       C  0.36606083  0.49769664  0.72133508    -0.13100
C1965       C  0.35504172  0.49994017  0.73816222     0.05500
C1966       C  0.34548850  0.48928894  0.76431806    -0.09000
C1967       C  0.34628794  0.47577579  0.77171317     0.06300
C1968       C  0.35694001  0.47321548  0.75372702    -0.13400
Br1969     Br  0.39504090  0.49457887  0.78032685    -0.05500
Br1970     Br  0.39272188  0.49205282  0.61551162     0.00100
Br1971     Br  0.35447121  0.51870294  0.72743236     0.00600
Br1972     Br  0.35783520  0.45458714  0.76272893    -0.03800
Br1973     Br  0.42631165  0.49926356  0.74648738     0.00700
Br1974     Br  0.35976870  0.47092518  0.65615664    -0.03100
Br1975     Br  0.38028936  0.51344629  0.68865050    -0.04000
Br1976     Br  0.33299231  0.46092067  0.80668816     0.00000
C1977       C  0.42848056  0.47805826  0.66908362     0.01400
C1978       C  0.42198960  0.46547240  0.69486120     0.04300
C1979       C  0.42857961  0.45579433  0.69953350    -0.11800
C1980       C  0.43795032  0.45508153  0.67387762     0.23500
C1981       C  0.44196124  0.46528542  0.64564731    -0.12400
C1982       C  0.44005440  0.47815313  0.64695214     0.05000
C1983       C  0.44662456  0.44658053  0.67911948     0.27400
C1984       C  0.46274869  0.45536482  0.68692223    -0.13100
C1985       C  0.47136509  0.44801056  0.69059696     0.05500
C1986       C  0.46598737  0.43310948  0.67511019    -0.09000
C1987       C  0.44897578  0.42331771  0.67318353     0.06300
C1988       C  0.43944718  0.43019047  0.67554954    -0.13400
Br1989     Br  0.45199631  0.46303666  0.60636444    -0.05500
Br1990     Br  0.40426171  0.45961794  0.72433501     0.00100
Br1991     Br  0.48672472  0.45665632  0.72733407     0.00600
Br1992     Br  0.41684701  0.41767852  0.66954996    -0.03800
Br1993     Br  0.45596556  0.49625360  0.62128401     0.00700
Br1994     Br  0.42610128  0.44462403  0.74244339    -0.03100
Br1995     Br  0.47386443  0.47784447  0.69209390    -0.04000
Br1996     Br  0.43804881  0.40093829  0.66481764     0.00000
C1997       C  0.42032130  0.48843780  0.62053610     0.01400
C1998       C  0.40839706  0.47285029  0.60868601     0.04300
C1999       C  0.40529328  0.46958240  0.57337055    -0.11800
C2000       C  0.41517285  0.48053970  0.54867719     0.23500
C2001       C  0.42792057  0.49483107  0.55908267    -0.12400
C2002       C  0.42921457  0.49969370  0.59317618     0.05000
C2003       C  0.41225982  0.47742683  0.51133008     0.27400
C2004       C  0.41891468  0.47019404  0.49428343    -0.13100
C2005       C  0.41720034  0.46853849  0.45856849     0.05500
C2006       C  0.41279475  0.47793819  0.43798835    -0.09000
C2007       C  0.40289529  0.48200014  0.45627529     0.06300
C2008       C  0.40288361  0.48180671  0.49270591    -0.13400
Br2009     Br  0.44478133  0.50700112  0.52646819    -0.05500
Br2010     Br  0.39468464  0.45536292  0.63885327     0.00100
Br2011     Br  0.41396654  0.44865243  0.44465119     0.00600
Br2012     Br  0.39103550  0.48873374  0.51780948    -0.03800
Br2013     Br  0.44367122  0.52194130  0.59591741     0.00700
Br2014     Br  0.38768637  0.44976976  0.55789306    -0.03100
Br2015     Br  0.42939429  0.46148301  0.52055813    -0.04000
Br2016     Br  0.38992301  0.48916503  0.43507681     0.00000
C2017       C  0.64969369  0.51609077  0.26212391     0.01400
C2018       C  0.63505950  0.51330010  0.24909529     0.04300
C2019       C  0.62611377  0.51783336  0.26775721    -0.11800
C2020       C  0.63174075  0.52536968  0.29937121     0.23500
C2021       C  0.64686834  0.52922118  0.31109791    -0.12400
C2022       C  0.65574005  0.52443712  0.29275733     0.05000
C2023       C  0.62086647  0.52713938  0.32230044     0.27400
C2024       C  0.61714922  0.53871148  0.31591386    -0.13100
C2025       C  0.60440280  0.53821597  0.33312038     0.05500
C2026       C  0.59739960  0.52823324  0.36352221    -0.09000
C2027       C  0.60268277  0.51732496  0.37065032     0.06300
C2028       C  0.61319129  0.51614795  0.34879330    -0.13400
Br2029     Br  0.65505272  0.54053927  0.35307804    -0.05500
Br2030     Br  0.62632355  0.50189325  0.20723221     0.00100
Br2031     Br  0.59563521  0.54863973  0.30647050     0.00600
Br2032     Br  0.61672231  0.49876435  0.35381341    -0.03800
Br2033     Br  0.67620303  0.52940395  0.30961228     0.00700
Br2034     Br  0.60559856  0.51272873  0.25088953    -0.03100
Br2035     Br  0.62912344  0.55463861  0.28107957    -0.04000
Br2036     Br  0.59671182  0.50356290  0.41017245     0.00000
C2037       C  0.56925191  0.50863090  0.38617861     0.01400
C2038       C  0.56145148  0.49980436  0.41734922     0.04300
C2039       C  0.54604045  0.48667498  0.41633066    -0.11800
C2040       C  0.53979468  0.47890666  0.38575522     0.23500
C2041       C  0.54905024  0.48441014  0.35616283    -0.12400
C2042       C  0.56382318  0.49887055  0.35615509     0.05000
C2043       C  0.52380827  0.46436668  0.38582484     0.27400
C2044       C  0.52181103  0.45014065  0.39759512    -0.13100
C2045       C  0.50659434  0.43738208  0.40610594     0.05500
C2046       C  0.49227295  0.43703282  0.39597679    -0.09000
C2047       C  0.49523598  0.45167708  0.37973188     0.06300
C2048       C  0.51057585  0.46529703  0.37825950    -0.13400
Br2049     Br  0.54069057  0.47218083  0.31516227    -0.05500
Br2050     Br  0.57106154  0.50124513  0.46191117     0.00100
Br2051     Br  0.50754286  0.42330000  0.43886002     0.00600
Br2052     Br  0.51395424  0.48597049  0.36714210    -0.03800
Br2053     Br  0.57541875  0.50371868  0.31359343     0.00700
Br2054     Br  0.53334768  0.47907466  0.45760154    -0.03100
Br2055     Br  0.54059011  0.44897908  0.40512434    -0.04000
Br2056     Br  0.48038515  0.45526948  0.35627055     0.00000
C2057       C  0.59276933  0.54116126  0.67100512     0.01400
C2058       C  0.58906590  0.53809234  0.70725675     0.04300
C2059       C  0.59797902  0.53447991  0.73000122    -0.11800
C2060       C  0.61062763  0.53365058  0.71799522     0.23500
C2061       C  0.61618381  0.53897909  0.68474786    -0.12400
C2062       C  0.60806192  0.54366858  0.66187328     0.05000
C2063       C  0.61790381  0.52671977  0.74000909     0.27400
C2064       C  0.63247252  0.53648849  0.75652127    -0.13100
C2065       C  0.64029621  0.52983311  0.77356649     0.05500
C2066       C  0.63342205  0.51340821  0.77441452    -0.09000
C2067       C  0.61842568  0.50360871  0.75967392     0.06300
C2068       C  0.61055759  0.51024256  0.74302000    -0.13400
Br2069     Br  0.63430822  0.53813617  0.66979486    -0.05500
Br2070     Br  0.57252114  0.53934186  0.72915269     0.00100
Br2071     Br  0.66077934  0.54320507  0.79399584     0.00600
Br2072     Br  0.58944677  0.49662714  0.72573475    -0.03800
Br2073     Br  0.61919464  0.55255322  0.61938595     0.00700
Br2074     Br  0.59280937  0.53005171  0.77829614    -0.03100
Br2075     Br  0.64143866  0.55890963  0.75616559    -0.04000
Br2076     Br  0.60836306  0.48099858  0.76316305     0.00000
C2077       C  0.49536438  0.44391654  0.66582739     0.01400
C2078       C  0.49917463  0.45726908  0.64374847     0.04300
C2079       C  0.51423717  0.47090534  0.64338631    -0.11800
C2080       C  0.52534406  0.47317205  0.66856973     0.23500
C2081       C  0.52173185  0.46124501  0.69313486    -0.12400
C2082       C  0.50709261  0.44664822  0.69201645     0.05000
C2083       C  0.53982801  0.48913849  0.67108758     0.27400
C2084       C  0.55445066  0.49208557  0.66026266    -0.13100
C2085       C  0.56728299  0.50771796  0.65565978     0.05500
C2086       C  0.56492462  0.52095914  0.65563566    -0.09000
C2087       C  0.54983451  0.51731387  0.67019201     0.06300
C2088       C  0.53817208  0.50169822  0.67951856    -0.13400
Br2089     Br  0.53658468  0.46591605  0.73045673    -0.05500
Br2090     Br  0.48446799  0.45833862  0.61298351     0.00100
Br2091     Br  0.58687587  0.50910574  0.64360044     0.00600
Br2092     Br  0.51883603  0.49669192  0.70275622    -0.03800
Br2093     Br  0.50303019  0.43340520  0.73271054     0.00700
Br2094     Br  0.51982160  0.48697297  0.60779574    -0.03100
Br2095     Br  0.55609035  0.47431931  0.64759546    -0.04000
Br2096     Br  0.54286004  0.53178763  0.68046426     0.00000
C2097       C  0.58432175  0.53936068  0.60452953     0.01400
C2098       C  0.58044914  0.52594790  0.58402016     0.04300
C2099       C  0.58871734  0.52793524  0.55385854    -0.11800
C2100       C  0.59382895  0.54151968  0.53396220     0.23500
C2101       C  0.59578163  0.55480673  0.54978694    -0.12400
C2102       C  0.59285439  0.55432843  0.58533849     0.05000
C2103       C  0.59275890  0.54030484  0.49591184     0.27400
C2104       C  0.60508510  0.54162873  0.47636834    -0.13100
C2105       C  0.60311991  0.53852890  0.44070860     0.05500
C2106       C  0.58783274  0.53280675  0.42416361    -0.09000
C2107       C  0.57597144  0.53308027  0.44504219     0.06300
C2108       C  0.57868548  0.53701866  0.47983819    -0.13400
Br2109     Br  0.60270227  0.57366293  0.52201090    -0.05500
Br2110     Br  0.56032952  0.50632196  0.58138814     0.00100
Br2111     Br  0.62274993  0.54417628  0.41807610     0.00600
Br2112     Br  0.56226693  0.53655266  0.50712610    -0.03800
Br2113     Br  0.60283812  0.57505872  0.60451319     0.00700
Br2114     Br  0.59088549  0.51104286  0.53809556    -0.03100
Br2115     Br  0.62494915  0.54824225  0.49967507    -0.04000
Br2116     Br  0.55426345  0.52524908  0.43050057     0.00000
C2117       C  0.52742430  0.60154508  0.34297733     0.01400
C2118       C  0.51599774  0.59750540  0.31554292     0.04300
C2119       C  0.51364241  0.60901417  0.29939360    -0.11800
C2120       C  0.52367653  0.62492496  0.30643704     0.23500
C2121       C  0.53714775  0.62946056  0.32655886    -0.12400
C2122       C  0.53936812  0.61799285  0.34362864     0.05000
C2123       C  0.52026319  0.63679393  0.29126887     0.27400
C2124       C  0.52694636  0.64438908  0.25964440    -0.13100
C2125       C  0.52250884  0.65445568  0.24398663     0.05500
C2126       C  0.51062939  0.65619431  0.25870619    -0.09000
C2127       C  0.50428412  0.64896147  0.29079536     0.06300
C2128       C  0.50929439  0.63956016  0.30716316    -0.13400
Br2129     Br  0.55199674  0.65166033  0.33249278    -0.05500
Br2130     Br  0.50440952  0.57727632  0.29446502     0.00100
Br2131     Br  0.53303671  0.66623926  0.20290436     0.00600
Br2132     Br  0.50015620  0.62971598  0.35049528    -0.03800
Br2133     Br  0.55948068  0.62582234  0.36536302     0.00700
Br2134     Br  0.49624032  0.60310278  0.26764082    -0.03100
Br2135     Br  0.54126344  0.64006366  0.23660574    -0.04000
Br2136     Br  0.48745506  0.65043018  0.31116503     0.00000
C2137       C  0.43275005  0.50065888  0.39347577     0.01400
C2138       C  0.43977251  0.51234068  0.41989513     0.04300
C2139       C  0.45526836  0.52547104  0.41646735    -0.11800
C2140       C  0.46262996  0.52986539  0.38456573     0.23500
C2141       C  0.45482810  0.52046525  0.35629184    -0.12400
C2142       C  0.44068189  0.50571811  0.36069160     0.05000
C2143       C  0.47813372  0.54496309  0.38035154     0.27400
C2144       C  0.47906944  0.55949352  0.38094408    -0.13100
C2145       C  0.49386243  0.57384222  0.37754131     0.05500
C2146       C  0.50826479  0.57392514  0.37155125    -0.09000
C2147       C  0.50547702  0.55866674  0.36243533     0.06300
C2148       C  0.49160556  0.54470777  0.37215497    -0.13400
Br2149     Br  0.46359019  0.52824669  0.31104384    -0.05500
Br2150     Br  0.42862397  0.51514269  0.45580250     0.00100
Br2151     Br  0.49204264  0.59207061  0.37294022     0.00600
Br2152     Br  0.49088024  0.52494262  0.37239667    -0.03800
Br2153     Br  0.43229466  0.49358451  0.31962493     0.00700
Br2154     Br  0.46664134  0.53792057  0.45580795    -0.03100
Br2155     Br  0.45948225  0.55933175  0.38420714    -0.04000
Br2156     Br  0.51692900  0.55538022  0.32725322     0.00000
C2157       C  0.53769357  0.58297782  0.37105474     0.01400
C2158       C  0.53669345  0.57208241  0.39791232     0.04300
C2159       C  0.54689400  0.56618815  0.39866605    -0.11800
C2160       C  0.55661531  0.56847610  0.37088377     0.23500
C2161       C  0.55776560  0.57869252  0.34390985    -0.12400
C2162       C  0.54871991  0.58610569  0.34374910     0.05000
C2163       C  0.56438811  0.55889268  0.36893026     0.27400
C2164       C  0.58025070  0.56511167  0.37813226    -0.13100
C2165       C  0.58699633  0.55554231  0.37864152     0.05500
C2166       C  0.57781552  0.53895914  0.37071672    -0.09000
C2167       C  0.56280926  0.53422913  0.35466907     0.06300
C2168       C  0.55584248  0.54347666  0.35690848    -0.13400
Br2169     Br  0.57172100  0.58201858  0.30633157    -0.05500
Br2170     Br  0.52130038  0.56423006  0.43515441     0.00100
Br2171     Br  0.60943948  0.56646519  0.38697276     0.00600
Br2172     Br  0.53385447  0.53434888  0.34505966    -0.03800
Br2173     Br  0.55012160  0.59753282  0.30179483     0.00700
Br2174     Br  0.54849114  0.55581195  0.43955616    -0.03100
Br2175     Br  0.59255775  0.58687735  0.39124838    -0.04000
Br2176     Br  0.55251406  0.51802609  0.32159794     0.00000
C2177       C  0.52465008  0.61472507  0.65097425     0.01400
C2178       C  0.53810160  0.62589521  0.67145390     0.04300
C2179       C  0.53721862  0.63704225  0.69166427    -0.11800
C2180       C  0.52354976  0.63783509  0.69176353     0.23500
C2181       C  0.51135369  0.62886885  0.66854971    -0.12400
C2182       C  0.51206486  0.61796824  0.64747719     0.05000
C2183       C  0.52145218  0.64771120  0.71668510     0.27400
C2184       C  0.51711386  0.64234801  0.75082474    -0.13100
C2185       C  0.51038926  0.64876293  0.77124444     0.05500
C2186       C  0.50792438  0.66063016  0.75753374    -0.09000
C2187       C  0.51394238  0.66715898  0.72469216     0.06300
C2188       C  0.52115608  0.66102702  0.70486586    -0.13400
Br2189     Br  0.49237313  0.62999858  0.66925043    -0.05500
Br2190     Br  0.55899597  0.62875366  0.67156262     0.00100
Br2191     Br  0.50331880  0.64000739  0.81682890     0.00600
Br2192     Br  0.53034180  0.67043913  0.66098499    -0.03800
Br2193     Br  0.49436237  0.60708069  0.61690962     0.00700
Br2194     Br  0.55490388  0.65186959  0.71955203    -0.03100
Br2195     Br  0.52005580  0.62597738  0.76981392    -0.04000
Br2196     Br  0.51221136  0.68434748  0.70622182     0.00000
C2197       C  0.50877804  0.58356127  0.64762253     0.01400
C2198       C  0.49881254  0.58161134  0.67677724     0.04300
C2199       C  0.48596110  0.56661116  0.68671896    -0.11800
C2200       C  0.48190504  0.55338600  0.66778145     0.23500
C2201       C  0.49236369  0.55435548  0.64290290    -0.12400
C2202       C  0.50601801  0.56890563  0.63431954     0.05000
C2203       C  0.46671396  0.53830476  0.67453153     0.27400
C2204       C  0.46675587  0.52541288  0.68917613    -0.13100
C2205       C  0.45282047  0.51038033  0.68927235     0.05500
C2206       C  0.43847214  0.50791112  0.67233150    -0.09000
C2207       C  0.43797454  0.52208612  0.66893061     0.06300
C2208       C  0.45215011  0.53699064  0.66757655    -0.13400
Br2209     Br  0.48736103  0.53563326  0.61853436    -0.05500
Br2210     Br  0.50215692  0.59722464  0.70954678     0.00100
Br2211     Br  0.45453535  0.49529456  0.71872556     0.00600
Br2212     Br  0.45184981  0.55536142  0.65085844    -0.03800
Br2213     Br  0.51934132  0.56754991  0.60082682     0.00700
Br2214     Br  0.47387095  0.56328654  0.72827160    -0.03100
Br2215     Br  0.48621332  0.52894973  0.71030755    -0.04000
Br2216     Br  0.41899072  0.52262761  0.66239745     0.00000
C2217       C  0.53841028  0.59840036  0.63878244     0.01400
C2218       C  0.55093682  0.60230103  0.61465844     0.04300
C2219       C  0.55978660  0.59475007  0.61684981    -0.11800
C2220       C  0.55612780  0.58288842  0.64163054     0.23500
C2221       C  0.54587825  0.58084827  0.66822775    -0.12400
C2222       C  0.53888789  0.58999806  0.66886264     0.05000
C2223       C  0.56354939  0.57310042  0.64097930     0.27400
C2224       C  0.55887897  0.56161309  0.61617976    -0.13100
C2225       C  0.56263485  0.54991786  0.62010396     0.05500
C2226       C  0.57395470  0.55093518  0.64530628    -0.09000
C2227       C  0.58097616  0.56477158  0.66645453     0.06300
C2228       C  0.57482443  0.57484544  0.66569388    -0.13400
Br2229     Br  0.54058896  0.56490885  0.70348501    -0.05500
Br2230     Br  0.56076748  0.62105881  0.58646875     0.00100
Br2231     Br  0.54953515  0.53152893  0.59325723     0.00600
Br2232     Br  0.58292396  0.59232969  0.69651581    -0.03800
Br2233     Br  0.53225519  0.59223617  0.71317866     0.00700
Br2234     Br  0.57771736  0.60101465  0.58720146    -0.03100
Br2235     Br  0.54762573  0.56185397  0.57541120    -0.04000
Br2236     Br  0.60089788  0.57326044  0.69135691     0.00000
C2237       C  0.52027016  0.60166706  0.59149867     0.01400
C2238       C  0.52902000  0.61618346  0.57179457     0.04300
C2239       C  0.53056836  0.61593899  0.53567956    -0.11800
C2240       C  0.52290604  0.60164993  0.51833601     0.23500
C2241       C  0.51149727  0.58819193  0.53588782    -0.12400
C2242       C  0.50863265  0.58886140  0.57083093     0.05000
C2243       C  0.52564102  0.60101546  0.48098544     0.27400
C2244       C  0.51544115  0.60145942  0.45630582    -0.13100
C2245       C  0.51953817  0.60325679  0.42159457     0.05500
C2246       C  0.52941327  0.59805212  0.40951675    -0.09000
C2247       C  0.54167345  0.60059185  0.43427776     0.06300
C2248       C  0.53926873  0.60148235  0.46976371    -0.13400
Br2249     Br  0.49925561  0.56880871  0.51143790    -0.05500
Br2250     Br  0.53868737  0.63704417  0.59081671     0.00100
Br2251     Br  0.52396517  0.62356450  0.40587423     0.00600
Br2252     Br  0.55413340  0.60241238  0.50374389    -0.03800
Br2253     Br  0.48660536  0.57454240  0.58300926     0.00700
Br2254     Br  0.54354957  0.63515474  0.50942830    -0.03100
Br2255     Br  0.49799344  0.60351939  0.46971677    -0.04000
Br2256     Br  0.56241827  0.60410952  0.42360522     0.00000
loop_ 
_geom_bond_atom_site_label_1 
_geom_bond_atom_site_label_2 
_geom_bond_distance 
_geom_bond_site_symmetry_2 
_ccdc_geom_bond_type 
C1         C2177   1.598       .  S
C1         C2197   1.621       .  S
C1         C2217   1.614       .  S
C1         C2237   1.629       .  S
C2         C2117   1.611       .  S
C2         C2146   1.623       .  S
C2         C2157   1.599       .  S
C2         C2246   1.629       .  S
C3         C2057   1.604       .  S
C3         C2086   1.618       .  S
C3         C2097   1.623       .  S
C3         C2226   1.591       .  S
C4         C2026   1.606       .  S
C4         C2037   1.630       .  S
C4         C2106   1.606       .  S
C4         C2166   1.623       .  S
C5         C1957   1.613       .  S
C5         C1977   1.601       .  S
C5         C1997   1.618       .  S
C5         C2206   1.616       .  S
C6         C1926   1.610       .  S
C6         C1946   1.618       .  S
C6         C2006   1.618       .  S
C6         C2137   1.609       .  S
C7         C1886   1.613       .  S
C7         C1897   1.644       .  S
C7         C1986   1.612       .  S
C7         C2077   1.598       .  S
C8         C1857   1.642       .  S
C8         C1906   1.590       .  S
C8         C1937   1.639       .  S
C8         C2046   1.627       .  S
C9         C1777   1.597       .  S
C9         C1797   1.617       .  S
C9         C1817   1.622       .  S
C9         C1846   1.584       .  S
C10        C1717   1.619       .  S
C10        C1737   1.611       .  S
C10        C1757   1.601       .  S
C10        C1837   1.616       .  S
C11        C1657   1.614       .  S
C11        C1686   1.614       .  S
C11        C1697   1.617       .  S
C11        C1826   1.617       .  S
C12        C1626   1.607       .  S
C12        C1637   1.613       .  S
C12        C1706   1.614       .  S
C12        C1766   1.611       .  S
C13        C1557   1.605       .  S
C13        C1577   1.606       .  S
C13        C1597   1.638       .  S
C13        C1806   1.619       .  S
C14        C1517   1.610       .  S
C14        C1537   1.616       .  S
C14        C1606   1.620       .  S
C14        C1746   1.618       .  S
C15        C1477   1.603       .  S
C15        C1506   1.622       .  S
C15        C1586   1.611       .  S
C15        C1677   1.609       .  S
C16        C1457   1.608       .  S
C16        C1497   1.603       .  S
C16        C1546   1.612       .  S
C16        C1646   1.621       .  S
In17         O19   2.233       .  S
In17         O20   2.242       .  S
In17         O28   2.257       .  S
In17         O22   2.256       .  S
In17         O24   2.270       .  S
In17         O25   2.247       .  S
In17         O26   2.238       .  S
In17         O29   2.252       .  S
C18          O24   1.263       .  A
C18          O26   1.258       .  A
C18        C1397   1.486       .  S
O19          C27   1.261       .  A
O20          C27   1.262       .  A
C21          O28   1.258       .  A
C21          O22   1.263       .  A
C21        C1437   1.494       .  S
C23          O25   1.258       .  A
C23          O29   1.259       .  A
C23        C2126   1.481       .  S
C27        C1417   1.468       .  S
In30         O32   2.249       .  S
In30         O33   2.252       .  S
In30         O41   2.266       .  S
In30         O35   2.253       .  S
In30         O37   2.268       .  S
In30         O38   2.244       .  S
In30         O39   2.246       .  S
In30         O42   2.233       .  S
C31          O37   1.262       .  A
C31          O39   1.258       .  A
C31        C1357   1.486       .  S
O32          C40   1.261       .  A
O33          C40   1.257       .  A
C34          O41   1.262       .  A
C34          O35   1.261       .  A
C34        C1446   1.488       .  S
C36          O38   1.262       .  A
C36          O42   1.260       .  A
C36        C1377   1.478       .  S
C40        C1337   1.483       .  S
In43         O45   2.264       .  S
In43         O46   2.244       .  S
In43         O54   2.254       .  S
In43         O48   2.254       .  S
In43         O50   2.231       .  S
In43         O51   2.262       .  S
In43         O52   2.257       .  S
In43         O55   2.230       .  S
C44          O50   1.261       .  A
C44          O52   1.264       .  A
C44        C1306   1.478       .  S
O45          C53   1.261       .  A
O46          C53   1.256       .  A
C47          O54   1.258       .  A
C47          O48   1.258       .  A
C47        C1317   1.485       .  S
C49          O51   1.260       .  A
C49          O55   1.257       .  A
C49        C1426   1.485       .  S
C53        C2186   1.488       .  S
In56         O58   2.243       .  S
In56         O59   2.234       .  S
In56         O67   2.253       .  S
In56         O61   2.247       .  S
In56         O63   2.272       .  S
In56         O64   2.222       .  S
In56         O65   2.238       .  S
In56         O68   2.244       .  S
C57          O63   1.262       .  A
C57          O65   1.258       .  A
C57        C1286   1.483       .  S
O58          C66   1.263       .  A
O59          C66   1.261       .  A
C60          O67   1.259       .  A
C60          O61   1.261       .  A
C60        C1326   1.481       .  S
C62          O64   1.258       .  A
C62          O68   1.261       .  A
C62        C1257   1.469       .  S
C66        C1386   1.477       .  S
In69         O71   2.244       .  S
In69         O72   2.254       .  S
In69         O80   2.272       .  S
In69         O74   2.249       .  S
In69         O76   2.266       .  S
In69         O77   2.246       .  S
In69         O78   2.239       .  S
In69         O81   2.276       .  S
C70          O76   1.263       .  A
C70          O78   1.260       .  A
C70        C1197   1.483       .  S
O71          C79   1.257       .  A
O72          C79   1.266       .  A
C73          O80   1.260       .  A
C73          O74   1.257       .  A
C73        C1246   1.489       .  S
C75          O77   1.258       .  A
C75          O81   1.259       .  A
C75        C1466   1.488       .  S
C79        C1217   1.488       .  S
In82         O84   2.277       .  S
In82         O85   2.259       .  S
In82         O93   2.274       .  S
In82         O87   2.254       .  S
In82         O89   2.271       .  S
In82         O90   2.273       .  S
In82         O91   2.232       .  S
In82         O94   2.237       .  S
C83          O89   1.262       .  A
C83          O91   1.257       .  A
C83        C1406   1.479       .  S
O84          C92   1.269       .  A
O85          C92   1.252       .  A
C86          O93   1.264       .  A
C86          O87   1.258       .  A
C86        C1237   1.495       .  S
C88          O90   1.263       .  A
C88          O94   1.257       .  A
C88        C1177   1.486       .  S
C92        C1917   1.497       .  S
In95         O97   2.257       .  S
In95         O98   2.241       .  S
In95        O106   2.257       .  S
In95        O100   2.250       .  S
In95        O102   2.274       .  S
In95        O103   2.263       .  S
In95        O104   2.248       .  S
In95        O107   2.239       .  S
C96         O102   1.260       .  A
C96         O104   1.258       .  A
C96        C1146   1.493       .  S
O97         C105   1.269       .  A
O98         C105   1.253       .  A
C99         O106   1.261       .  A
C99         O100   1.262       .  A
C99        C1157   1.484       .  S
C101        O103   1.262       .  A
C101        O107   1.258       .  A
C101       C1226   1.473       .  S
C105       C1486   1.488       .  S
In108       O110   2.220       .  S
In108       O111   2.257       .  S
In108       O119   2.259       .  S
In108       O113   2.230       .  S
In108       O115   2.243       .  S
In108       O116   2.250       .  S
In108       O117   2.226       .  S
In108       O120   2.244       .  S
C109        O115   1.261       .  A
C109        O117   1.259       .  A
C109       C1297   1.474       .  S
O110        C118   1.257       .  A
O111        C118   1.264       .  A
C112        O119   1.264       .  A
C112        O113   1.257       .  A
C112       C1166   1.481       .  S
C114        O116   1.258       .  A
C114        O120   1.260       .  A
C114       C1966   1.478       .  S
C118       C1186   1.475       .  S
In121       O123   2.232       .  S
In121       O124   2.255       .  S
In121       O132   2.264       .  S
In121       O126   2.234       .  S
In121       O128   2.259       .  S
In121       O129   2.252       .  S
In121       O130   2.246       .  S
In121       O133   2.258       .  S
C122        O128   1.261       .  A
C122        O130   1.260       .  A
C122       C1366   1.484       .  S
O123        C131   1.260       .  A
O124        C131   1.264       .  A
C125        O132   1.261       .  A
C125        O126   1.258       .  A
C125       C1117   1.489       .  S
C127        O129   1.262       .  A
C127        O133   1.259       .  A
C127       C1077   1.489       .  S
C131       C1097   1.485       .  S
In134       O136   2.244       .  S
In134       O137   2.248       .  S
In134       O145   2.246       .  S
In134       O139   2.235       .  S
In134       O141   2.254       .  S
In134       O142   2.262       .  S
In134       O143   2.233       .  S
In134       O146   2.244       .  S
C135        O141   1.262       .  A
C135        O143   1.263       .  A
C135       C1206   1.485       .  S
O136        C144   1.260       .  A
O137        C144   1.261       .  A
C138        O145   1.260       .  A
C138        O139   1.261       .  A
C138       C1126   1.474       .  S
C140        O142   1.263       .  A
C140        O146   1.257       .  A
C140       C1057   1.490       .  S
C144       C1617   1.476       .  S
In147       O149   2.270       .  S
In147       O150   2.240       .  S
In147       O158   2.272       .  S
In147       O152   2.242       .  S
In147       O154   2.237       .  S
In147       O155   2.269       .  S
In147       O156   2.257       .  S
In147       O159   2.221       .  S
C148        O154   1.262       .  A
C148        O156   1.262       .  A
C148       C1277   1.485       .  S
O149        C157   1.263       .  A
O150        C157   1.261       .  A
C151        O158   1.263       .  A
C151        O152   1.258       .  A
C151       C1046   1.488       .  S
C153        O155   1.262       .  A
C153        O159   1.259       .  A
C153       C1106   1.476       .  S
C157       C1017   1.491       .  S
In160       O162   2.232       .  S
In160       O163   2.270       .  S
In160       O171   2.275       .  S
In160       O165   2.235       .  S
In160       O167   2.258       .  S
In160       O168   2.245       .  S
In160       O169   2.238       .  S
In160       O172   2.274       .  S
C161        O167   1.261       .  A
C161        O169   1.260       .  A
C161       C1137   1.475       .  S
O162        C170   1.260       .  A
O163        C170   1.264       .  A
C164        O171   1.263       .  A
C164        O165   1.256       .  A
C164       C1037   1.483       .  S
C166        O168   1.259       .  A
C166        O172   1.262       .  A
C166       C1666   1.494       .  S
C170       C1066   1.485       .  S
In173       O175   2.245       .  S
In173       O176   2.255       .  S
In173       O184   2.261       .  S
In173       O178   2.239       .  S
In173       O180   2.251       .  S
In173       O181   2.251       .  S
In173       O182   2.245       .  S
In173       O185   2.253       .  S
C174        O180   1.261       .  A
C174        O182   1.257       .  A
C174        C957   1.486       .  S
O175        C183   1.258       .  A
O176        C183   1.260       .  A
C177        O184   1.262       .  A
C177        O178   1.259       .  A
C177        C997   1.484       .  S
C179        O181   1.259       .  A
C179        O185   1.262       .  A
C179       C1866   1.482       .  S
C183        C977   1.487       .  S
In186       O188   2.264       .  S
In186       O189   2.246       .  S
In186       O197   2.259       .  S
In186       O191   2.248       .  S
In186       O193   2.230       .  S
In186       O194   2.242       .  S
In186       O195   2.254       .  S
In186       O198   2.233       .  S
C187        O193   1.259       .  A
C187        O195   1.261       .  A
C187        C917   1.472       .  S
O188        C196   1.263       .  A
O189        C196   1.256       .  A
C190        O197   1.267       .  A
C190        O191   1.254       .  A
C190       C1006   1.490       .  S
C192        O194   1.261       .  A
C192        O198   1.262       .  A
C192        C937   1.481       .  S
C196        C897   1.483       .  S
In199       O201   2.266       .  S
In199       O202   2.243       .  S
In199       O210   2.270       .  S
In199       O204   2.246       .  S
In199       O206   2.253       .  S
In199       O207   2.256       .  S
In199       O208   2.243       .  S
In199       O211   2.252       .  S
C200        O206   1.261       .  A
C200        O208   1.260       .  A
C200        C857   1.476       .  S
O201        C209   1.261       .  A
O202        C209   1.258       .  A
C203        O210   1.261       .  A
C203        O204   1.257       .  A
C203        C877   1.481       .  S
C205        O207   1.260       .  A
C205        O211   1.260       .  A
C205        C986   1.481       .  S
C209       C1877   1.484       .  S
In212       O214   2.222       .  S
In212       O215   2.253       .  S
In212       O223   2.262       .  S
In212       O217   2.258       .  S
In212       O219   2.263       .  S
In212       O220   2.260       .  S
In212       O221   2.235       .  S
In212       O224   2.247       .  S
C213        O219   1.263       .  A
C213        O221   1.261       .  A
C213        C837   1.487       .  S
O214        C222   1.260       .  A
O215        C222   1.263       .  A
C216        O223   1.260       .  A
C216        O217   1.263       .  A
C216        C886   1.494       .  S
C218        O220   1.261       .  A
C218        O224   1.261       .  A
C218        C817   1.483       .  S
C222        C946   1.474       .  S
In225       O227   2.259       .  S
In225       O228   2.243       .  S
In225       O236   2.257       .  S
In225       O230   2.235       .  S
In225       O232   2.258       .  S
In225       O233   2.275       .  S
In225       O234   2.232       .  S
In225       O237   2.244       .  S
C226        O232   1.263       .  A
C226        O234   1.260       .  A
C226        C757   1.482       .  S
O227        C235   1.260       .  A
O228        C235   1.259       .  A
C229        O236   1.262       .  A
C229        O230   1.260       .  A
C229        C797   1.482       .  S
C231        O233   1.261       .  A
C231        O237   1.258       .  A
C231        C786   1.480       .  S
C235       C1526   1.480       .  S
In238       O240   2.264       .  S
In238       O241   2.231       .  S
In238       O249   2.265       .  S
In238       O243   2.251       .  S
In238       O245   2.260       .  S
In238       O246   2.247       .  S
In238       O247   2.226       .  S
In238       O250   2.271       .  S
C239        O245   1.263       .  A
C239        O247   1.259       .  A
C239        C926   1.478       .  S
O240        C248   1.263       .  A
O241        C248   1.259       .  A
C242        O249   1.261       .  A
C242        O243   1.259       .  A
C242        C806   1.486       .  S
C244        O246   1.258       .  A
C244        O250   1.261       .  A
C244        C726   1.487       .  S
C248        C737   1.484       .  S
In251       O253   2.237       .  S
In251       O254   2.258       .  S
In251       O262   2.260       .  S
In251       O256   2.253       .  S
In251       O258   2.265       .  S
In251       O259   2.254       .  S
In251       O260   2.233       .  S
In251       O263   2.269       .  S
C252        O258   1.262       .  A
C252        O260   1.258       .  A
C252        C677   1.480       .  S
O253        C261   1.260       .  A
O254        C261   1.263       .  A
C255        O262   1.260       .  A
C255        O256   1.259       .  A
C255        C697   1.482       .  S
C257        O259   1.258       .  A
C257        O263   1.258       .  A
C257       C1566   1.487       .  S
C261        C777   1.481       .  S
In264       O266   2.262       .  S
In264       O267   2.246       .  S
In264       O275   2.286       .  S
In264       O269   2.244       .  S
In264       O271   2.269       .  S
In264       O272   2.266       .  S
In264       O273   2.234       .  S
In264       O276   2.225       .  S
C265        O271   1.264       .  A
C265        O273   1.260       .  A
C265        C846   1.485       .  S
O266        C274   1.265       .  A
O267        C274   1.254       .  A
C268        O275   1.260       .  A
C268        O269   1.255       .  A
C268        C706   1.486       .  S
C270        O272   1.263       .  A
C270        O276   1.258       .  A
C270        C746   1.482       .  S
C274        C657   1.486       .  S
In277       O279   2.225       .  S
In277       O280   2.257       .  S
In277       O288   2.266       .  S
In277       O282   2.239       .  S
In277       O284   2.253       .  S
In277       O285   2.250       .  S
In277       O286   2.227       .  S
In277       O289   2.255       .  S
C278        O284   1.262       .  A
C278        O286   1.258       .  A
C278        C766   1.468       .  S
O279        C287   1.257       .  A
O280        C287   1.263       .  A
C281        O288   1.264       .  A
C281        O282   1.260       .  A
C281        C637   1.483       .  S
C283        O285   1.255       .  A
C283        O289   1.267       .  A
C283       C1726   1.491       .  S
C287        C626   1.478       .  S
In290       O292   2.269       .  S
In290       O293   2.250       .  S
In290       O301   2.263       .  S
In290       O295   2.242       .  S
In290       O297   2.258       .  S
In290       O298   2.252       .  S
In290       O299   2.223       .  S
In290       O302   2.227       .  S
C291        O297   1.262       .  A
C291        O299   1.258       .  A
C291        C966   1.466       .  S
O292        C300   1.261       .  A
O293        C300   1.257       .  A
C294        O301   1.262       .  A
C294        O295   1.258       .  A
C294        C646   1.484       .  S
C296        O298   1.263       .  A
C296        O302   1.259       .  A
C296        C606   1.474       .  S
C300       C2017   1.486       .  S
In303       O305   2.266       .  S
In303       O306   2.241       .  S
In303       O314   2.266       .  S
In303       O308   2.242       .  S
In303       O310   2.252       .  S
In303       O311   2.249       .  S
In303       O312   2.232       .  S
In303       O315   2.236       .  S
C304        O310   1.261       .  A
C304        O312   1.261       .  A
C304        C686   1.479       .  S
O305        C313   1.268       .  A
O306        C313   1.251       .  A
C307        O314   1.260       .  A
C307        O308   1.257       .  A
C307        C586   1.484       .  S
C309        O311   1.262       .  A
C309        O315   1.261       .  A
C309        C617   1.480       .  S
C313       C1786   1.490       .  S
In316       O318   2.234       .  S
In316       O319   2.256       .  S
In316       O327   2.247       .  S
In316       O321   2.229       .  S
In316       O323   2.247       .  S
In316       O324   2.239       .  S
In316       O325   2.228       .  S
In316       O328   2.227       .  S
C317        O323   1.262       .  A
C317        O325   1.260       .  A
C317        C866   1.477       .  S
O318        C326   1.257       .  A
O319        C326   1.260       .  A
C320        O327   1.260       .  A
C320        O321   1.259       .  A
C320        C577   1.474       .  S
C322        O324   1.260       .  A
C322        O328   1.260       .  A
C322       C2066   1.467       .  S
C326        C597   1.479       .  S
C329        C517   1.620       .  S
C329        C537   1.608       .  S
C329        C557   1.620       .  S
C329       C1266   1.599       .  S
C330        C486   1.626       .  S
C330        C497   1.591       .  S
C330        C566   1.617       .  S
C330       C1346   1.609       .  S
C331        C446   1.599       .  S
C331        C457   1.610       .  S
C331        C546   1.612       .  S
C331        C666   1.581       .  S
C332        C417   1.618       .  S
C332        C466   1.610       .  S
C332        C506   1.621       .  S
C332        C717   1.609       .  S
C333        C386   1.621       .  S
C333        C397   1.616       .  S
C333        C526   1.614       .  S
C333       C1026   1.623       .  S
C334        C366   1.629       .  S
C334        C406   1.601       .  S
C334        C477   1.629       .  S
C334       C1086   1.605       .  S
C335        C346   1.610       .  S
C335        C377   1.617       .  S
C335        C437   1.620       .  S
C335        C826   1.616       .  S
C336        C337   1.621       .  S
C336        C357   1.605       .  S
C336        C426   1.611       .  S
C336        C906   1.613       .  S
C337        C338   1.427       .  A
C337        C342   1.453       .  A
C338        C339   1.401       .  A
C338       Br350   1.921       .  S
C339        C340   1.398       .  A
C339       Br354   1.938       .  S
C340        C343   1.484       .  S
C340        C341   1.402       .  A
C341        C342   1.413       .  A
C341       Br349   1.937       .  S
C342       Br353   1.949       .  S
C343        C344   1.391       .  A
C343        C348   1.396       .  A
C344        C345   1.412       .  A
C344       Br355   1.943       .  S
C345        C346   1.454       .  A
C345       Br351   1.918       .  S
C346        C347   1.452       .  A
C347        C348   1.410       .  A
C347       Br356   1.929       .  S
C348       Br352   1.941       .  S
C357        C358   1.460       .  A
C357        C362   1.446       .  A
C358        C359   1.412       .  A
C358       Br370   1.957       .  S
C359        C360   1.398       .  A
C359       Br374   1.933       .  S
C360        C363   1.514   1_545  S
C360        C361   1.410       .  A
C361        C362   1.429       .  A
C361       Br369   1.935       .  S
C362       Br373   1.934       .  S
C363        C364   1.403       .  A
C363        C368   1.400       .  A
C364        C365   1.422       .  A
C364       Br375   1.936   1_565  S
C365        C366   1.446       .  A
C365       Br371   1.912       .  S
C366        C367   1.452       .  A
C367        C368   1.420       .  A
C367       Br376   1.928       .  S
C368       Br372   1.934       .  S
C377        C378   1.456       .  A
C377        C382   1.459       .  A
C378        C379   1.408       .  A
C378       Br390   1.952       .  S
C379        C380   1.402       .  A
C379       Br394   1.928       .  S
C380        C383   1.517       .  S
C380        C381   1.404       .  A
C381        C382   1.431       .  A
C381       Br389   1.939       .  S
C382       Br393   1.940       .  S
C383        C384   1.400   1_545  A
C383        C388   1.411   1_545  A
C384        C385   1.419       .  A
C384       Br395   1.937   1_565  S
C385        C386   1.457       .  A
C385       Br391   1.951       .  S
C386        C387   1.438       .  A
C387        C388   1.427       .  A
C387       Br396   1.922       .  S
C388       Br392   1.934   1_565  S
C397        C398   1.445       .  A
C397        C402   1.457       .  A
C398        C399   1.399       .  A
C398       Br410   1.908       .  S
C399        C400   1.392       .  A
C399       Br414   1.939       .  S
C400        C403   1.500       .  S
C400        C401   1.405       .  A
C401        C402   1.426       .  A
C401       Br409   1.938       .  S
C402       Br413   1.919       .  S
C403        C404   1.403       .  A
C403        C408   1.399       .  A
C404        C405   1.423       .  A
C404       Br415   1.938       .  S
C405        C406   1.456       .  A
C405       Br411   1.942       .  S
C406        C407   1.447       .  A
C407        C408   1.401       .  A
C407       Br416   1.941       .  S
C408       Br412   1.943       .  S
C417        C418   1.455       .  A
C417        C422   1.454       .  A
C418        C419   1.411       .  A
C418       Br430   1.932       .  S
C419        C420   1.394       .  A
C419       Br434   1.933       .  S
C420        C423   1.496       .  S
C420        C421   1.399       .  A
C421        C422   1.415       .  A
C421       Br429   1.937       .  S
C422       Br433   1.931       .  S
C423        C424   1.402       .  A
C423        C428   1.403       .  A
C424        C425   1.407       .  A
C424       Br435   1.926       .  S
C425        C426   1.451       .  A
C425       Br431   1.951       .  S
C426        C427   1.435       .  A
C427        C428   1.413       .  A
C427       Br436   1.922       .  S
C428       Br432   1.935       .  S
C437        C438   1.451       .  A
C437        C442   1.461       .  A
C438        C439   1.415       .  A
C438       Br450   1.931       .  S
C439        C440   1.393       .  A
C439       Br454   1.944       .  S
C440        C443   1.483       .  S
C440        C441   1.395       .  A
C441        C442   1.409       .  A
C441       Br449   1.946       .  S
C442       Br453   1.954       .  S
C443        C444   1.396       .  A
C443        C448   1.397       .  A
C444        C445   1.405       .  A
C444       Br455   1.938       .  S
C445        C446   1.434       .  A
C445       Br451   1.917       .  S
C446        C447   1.457       .  A
C447        C448   1.412       .  A
C447       Br456   1.941       .  S
C448       Br452   1.946       .  S
C457        C458   1.418       .  A
C457        C462   1.417       .  A
C458        C459   1.414       .  A
C458       Br470   1.931       .  S
C459        C460   1.415       .  A
C459       Br474   1.925       .  S
C460        C463   1.501       .  S
C460        C461   1.420       .  A
C461        C462   1.406       .  A
C461       Br469   1.919       .  S
C462       Br473   1.936       .  S
C463        C464   1.401       .  A
C463        C468   1.399       .  A
C464        C465   1.419       .  A
C464       Br475   1.939       .  S
C465        C466   1.457       .  A
C465       Br471   1.950       .  S
C466        C467   1.443       .  A
C467        C468   1.414       .  A
C467       Br476   1.916       .  S
C468       Br472   1.930       .  S
C477        C478   1.459       .  A
C477        C482   1.451       .  A
C478        C479   1.406       .  A
C478       Br490   1.951       .  S
C479        C480   1.389       .  A
C479       Br494   1.936       .  S
C480        C483   1.487       .  S
C480        C481   1.400       .  A
C481        C482   1.419       .  A
C481       Br489   1.939       .  S
C482       Br493   1.942       .  S
C483        C484   1.398       .  A
C483        C488   1.397       .  A
C484        C485   1.415       .  A
C484       Br495   1.935       .  S
C485        C486   1.458       .  A
C485       Br491   1.948       .  S
C486        C487   1.427       .  A
C487        C488   1.404       .  A
C487       Br496   1.915       .  S
C488       Br492   1.933       .  S
C497        C498   1.450       .  A
C497        C502   1.445       .  A
C498        C499   1.396       .  A
C498       Br510   1.950       .  S
C499        C500   1.396       .  A
C499       Br514   1.924       .  S
C500        C503   1.503   1_565  S
C500        C501   1.409       .  A
C501        C502   1.430       .  A
C501       Br509   1.928   1_565  S
C502       Br513   1.930       .  S
C503        C504   1.392       .  A
C503        C508   1.404       .  A
C504        C505   1.404       .  A
C504       Br515   1.932       .  S
C505        C506   1.446       .  A
C505       Br511   1.922       .  S
C506        C507   1.455       .  A
C507        C508   1.428       .  A
C507       Br516   1.925       .  S
C508       Br512   1.931       .  S
C517        C518   1.459       .  A
C517        C522   1.460       .  A
C518        C519   1.420       .  A
C518       Br530   1.932       .  S
C519        C520   1.397       .  A
C519       Br534   1.948       .  S
C520        C523   1.500       .  S
C520        C521   1.399       .  A
C521        C522   1.418       .  A
C521       Br529   1.944       .  S
C522       Br533   1.943       .  S
C523        C524   1.400       .  A
C523        C528   1.396       .  A
C524        C525   1.411       .  A
C524       Br535   1.937       .  S
C525        C526   1.455       .  A
C525       Br531   1.936       .  S
C526        C527   1.459       .  A
C527        C528   1.415       .  A
C527       Br536   1.923       .  S
C528       Br532   1.942       .  S
C537        C538   1.450       .  A
C537        C542   1.452       .  A
C538        C539   1.418       .  A
C538       Br550   1.915       .  S
C539        C540   1.396       .  A
C539       Br554   1.935   1_565  S
C540        C543   1.494   1_565  S
C540        C541   1.395       .  A
C541        C542   1.411       .  A
C541       Br549   1.942       .  S
C542       Br553   1.926       .  S
C543        C544   1.406       .  A
C543        C548   1.398       .  A
C544        C545   1.423       .  A
C544       Br555   1.936       .  S
C545        C546   1.448       .  A
C545       Br551   1.931       .  S
C546        C547   1.435       .  A
C547        C548   1.397       .  A
C547       Br556   1.928       .  S
C548       Br552   1.936       .  S
C557        C558   1.445       .  A
C557        C562   1.459       .  A
C558        C559   1.397       .  A
C558       Br570   1.939       .  S
C559        C560   1.393       .  A
C559       Br574   1.923       .  S
C560        C563   1.494       .  S
C560        C561   1.403       .  A
C561        C562   1.423       .  A
C561       Br569   1.939       .  S
C562       Br573   1.939       .  S
C563        C564   1.405       .  A
C563        C568   1.400       .  A
C564        C565   1.413       .  A
C564       Br575   1.931       .  S
C565        C566   1.428       .  A
C565       Br571   1.920       .  S
C566        C567   1.456       .  A
C567        C568   1.410       .  A
C567       Br576   1.951       .  S
C568       Br572   1.933       .  S
C577        C578   1.412       .  A
C577        C582   1.411       .  A
C578        C579   1.406       .  A
C578       Br590   1.932       .  S
C579        C580   1.408       .  A
C579       Br594   1.929       .  S
C580        C583   1.483       .  S
C580        C581   1.409       .  A
C581        C582   1.406       .  A
C581       Br589   1.928       .  S
C582       Br593   1.932       .  S
C583        C584   1.408       .  A
C583        C588   1.408       .  A
C584        C585   1.411       .  A
C584       Br595   1.928       .  S
C585        C586   1.415       .  A
C585       Br591   1.929       .  S
C586        C587   1.415       .  A
C587        C588   1.404       .  A
C587       Br596   1.931       .  S
C588       Br592   1.936       .  S
C597        C598   1.414       .  A
C597        C602   1.414       .  A
C598        C599   1.404       .  A
C598       Br610   1.932       .  S
C599        C600   1.407       .  A
C599       Br614   1.932   1_556  S
C600        C603   1.482   1_556  S
C600        C601   1.409       .  A
C601        C602   1.408       .  A
C601       Br609   1.930   1_556  S
C602       Br613   1.932       .  S
C603        C604   1.409       .  A
C603        C608   1.408       .  A
C604        C605   1.405       .  A
C604       Br615   1.932       .  S
C605        C606   1.411       .  A
C605       Br611   1.932       .  S
C606        C607   1.410       .  A
C607        C608   1.407       .  A
C607       Br616   1.927       .  S
C608       Br612   1.930       .  S
C617        C618   1.413       .  A
C617        C622   1.414       .  A
C618        C619   1.406       .  A
C618       Br630   1.929       .  S
C619        C620   1.408       .  A
C619       Br634   1.931   1_556  S
C620        C623   1.482   1_556  S
C620        C621   1.407       .  A
C621        C622   1.407       .  A
C621       Br629   1.929       .  S
C622       Br633   1.931       .  S
C623        C624   1.408       .  A
C623        C628   1.408       .  A
C624        C625   1.409       .  A
C624       Br635   1.928       .  S
C625        C626   1.414       .  A
C625       Br631   1.931       .  S
C626        C627   1.413       .  A
C627        C628   1.405       .  A
C627       Br636   1.932       .  S
C628       Br632   1.933       .  S
C637        C638   1.413       .  A
C637        C642   1.411       .  A
C638        C639   1.408       .  A
C638       Br650   1.932       .  S
C639        C640   1.409       .  A
C639       Br654   1.931       .  S
C640        C643   1.489       .  S
C640        C641   1.410       .  A
C641        C642   1.411       .  A
C641       Br649   1.928       .  S
C642       Br653   1.928       .  S
C643        C644   1.409       .  A
C643        C648   1.409       .  A
C644        C645   1.409       .  A
C644       Br655   1.930       .  S
C645        C646   1.414       .  A
C645       Br651   1.930       .  S
C646        C647   1.414       .  A
C647        C648   1.410       .  A
C647       Br656   1.932       .  S
C648       Br652   1.929       .  S
C657        C658   1.417       .  A
C657        C662   1.411       .  A
C658        C659   1.407       .  A
C658       Br670   1.933       .  S
C659        C660   1.410       .  A
C659       Br674   1.933       .  S
C660        C663   1.489       .  S
C660        C661   1.409       .  A
C661        C662   1.410       .  A
C661       Br669   1.927       .  S
C662       Br673   1.929       .  S
C663        C664   1.401       .  A
C663        C668   1.401       .  A
C664        C665   1.412       .  A
C664       Br675   1.931       .  S
C665        C666   1.438       .  A
C665       Br671   1.946       .  S
C666        C667   1.448       .  A
C667        C668   1.407       .  A
C667       Br676   1.955       .  S
C668       Br672   1.945       .  S
C677        C678   1.413       .  A
C677        C682   1.413       .  A
C678        C679   1.404       .  A
C678       Br690   1.932       .  S
C679        C680   1.407       .  A
C679       Br694   1.933       .  S
C680        C683   1.483       .  S
C680        C681   1.408       .  A
C681        C682   1.411       .  A
C681       Br689   1.928       .  S
C682       Br693   1.928       .  S
C683        C684   1.407       .  A
C683        C688   1.408       .  A
C684        C685   1.407       .  A
C684       Br695   1.929       .  S
C685        C686   1.412       .  A
C685       Br691   1.931       .  S
C686        C687   1.414       .  A
C687        C688   1.408       .  A
C687       Br696   1.932       .  S
C688       Br692   1.931       .  S
C697        C698   1.413       .  A
C697        C702   1.411       .  A
C698        C699   1.409       .  A
C698       Br710   1.931       .  S
C699        C700   1.409       .  A
C699       Br714   1.929       .  S
C700        C703   1.490       .  S
C700        C701   1.410       .  A
C701        C702   1.410       .  A
C701       Br709   1.929       .  S
C702       Br713   1.929       .  S
C703        C704   1.410       .  A
C703        C708   1.408       .  A
C704        C705   1.414       .  A
C704       Br715   1.929       .  S
C705        C706   1.414       .  A
C705       Br711   1.928       .  S
C706        C707   1.415       .  A
C707        C708   1.407       .  A
C707       Br716   1.934       .  S
C708       Br712   1.931       .  S
C717        C718   1.459       .  A
C717        C722   1.452       .  A
C718        C719   1.422       .  A
C718       Br730   1.936       .  S
C719        C720   1.398       .  A
C719       Br734   1.940       .  S
C720        C723   1.496       .  S
C720        C721   1.394       .  A
C721        C722   1.411       .  A
C721       Br729   1.942       .  S
C722       Br733   1.929       .  S
C723        C724   1.411       .  A
C723        C728   1.409       .  A
C724        C725   1.414       .  A
C724       Br735   1.928       .  S
C725        C726   1.414       .  A
C725       Br731   1.929       .  S
C726        C727   1.414       .  A
C727        C728   1.407       .  A
C727       Br736   1.934       .  S
C728       Br732   1.928       .  S
C737        C738   1.414       .  A
C737        C742   1.415       .  A
C738        C739   1.406       .  A
C738       Br750   1.933       .  S
C739        C740   1.408       .  A
C739       Br754   1.932       .  S
C740        C743   1.486       .  S
C740        C741   1.409       .  A
C741        C742   1.410       .  A
C741       Br749   1.930       .  S
C742       Br753   1.931       .  S
C743        C744   1.408       .  A
C743        C748   1.410       .  A
C744        C745   1.405   1_554  A
C744       Br755   1.931       .  S
C745        C746   1.414       .  A
C745       Br751   1.933       .  S
C746        C747   1.413       .  A
C747        C748   1.410   1_556  A
C747       Br756   1.931       .  S
C748       Br752   1.930       .  S
C757        C758   1.414       .  A
C757        C762   1.415       .  A
C758        C759   1.404       .  A
C758       Br770   1.932       .  S
C759        C760   1.407       .  A
C759       Br774   1.933       .  S
C760        C763   1.483       .  S
C760        C761   1.408       .  A
C761        C762   1.411       .  A
C761       Br769   1.930       .  S
C762       Br773   1.930       .  S
C763        C764   1.409       .  A
C763        C768   1.410       .  A
C764        C765   1.406       .  A
C764       Br775   1.929       .  S
C765        C766   1.409       .  A
C765       Br771   1.931       .  S
C766        C767   1.407       .  A
C767        C768   1.406       .  A
C767       Br776   1.929       .  S
C768       Br772   1.930       .  S
C777        C778   1.411       .  A
C777        C782   1.412       .  A
C778        C779   1.407   1_556  A
C778       Br790   1.932       .  S
C779        C780   1.410       .  A
C779       Br794   1.932       .  S
C780        C783   1.490       .  S
C780        C781   1.411   1_554  A
C781        C782   1.411       .  A
C781       Br789   1.928   1_556  S
C782       Br793   1.931       .  S
C783        C784   1.410       .  A
C783        C788   1.411       .  A
C784        C785   1.408       .  A
C784       Br795   1.929       .  S
C785        C786   1.410       .  A
C785       Br791   1.930       .  S
C786        C787   1.411       .  A
C787        C788   1.411       .  A
C787       Br796   1.927       .  S
C788       Br792   1.930       .  S
C797        C798   1.414       .  A
C797        C802   1.414       .  A
C798        C799   1.407       .  A
C798       Br810   1.934       .  S
C799        C800   1.409       .  A
C799       Br814   1.931       .  S
C800        C803   1.488       .  S
C800        C801   1.409       .  A
C801        C802   1.411       .  A
C801       Br809   1.928       .  S
C802       Br813   1.930       .  S
C803        C804   1.408       .  A
C803        C808   1.408       .  A
C804        C805   1.410       .  A
C804       Br815   1.931       .  S
C805        C806   1.414       .  A
C805       Br811   1.929       .  S
C806        C807   1.415       .  A
C807        C808   1.410       .  A
C807       Br816   1.931       .  S
C808       Br812   1.930       .  S
C817        C818   1.411       .  A
C817        C822   1.411       .  A
C818        C819   1.414       .  A
C818       Br830   1.926       .  S
C819        C820   1.411       .  A
C819       Br834   1.926       .  S
C820        C823   1.495       .  S
C820        C821   1.410       .  A
C821        C822   1.404       .  A
C821       Br829   1.928       .  S
C822       Br833   1.929       .  S
C823        C824   1.394       .  A
C823        C828   1.396       .  A
C824        C825   1.415       .  A
C824       Br835   1.942       .  S
C825        C826   1.451       .  A
C825       Br831   1.924       .  S
C826        C827   1.468       .  A
C827        C828   1.420       .  A
C827       Br836   1.954       .  S
C828       Br832   1.945       .  S
C837        C838   1.415       .  A
C837        C842   1.417       .  A
C838        C839   1.409       .  A
C838       Br850   1.934       .  S
C839        C840   1.408       .  A
C839       Br854   1.930       .  S
C840        C843   1.489       .  S
C840        C841   1.408       .  A
C841        C842   1.410       .  A
C841       Br849   1.930       .  S
C842       Br853   1.932       .  S
C843        C844   1.407       .  A
C843        C848   1.410       .  A
C844        C845   1.408       .  A
C844       Br855   1.931       .  S
C845        C846   1.414       .  A
C845       Br851   1.931       .  S
C846        C847   1.414       .  A
C847        C848   1.411       .  A
C847       Br856   1.930       .  S
C848       Br852   1.929       .  S
C857        C858   1.410       .  A
C857        C862   1.410       .  A
C858        C859   1.406       .  A
C858       Br870   1.927       .  S
C859        C860   1.408       .  A
C859       Br874   1.931       .  S
C860        C863   1.482       .  S
C860        C861   1.408       .  A
C861        C862   1.408       .  A
C861       Br869   1.929       .  S
C862       Br873   1.929       .  S
C863        C864   1.408       .  A
C863        C868   1.408       .  A
C864        C865   1.408       .  A
C864       Br875   1.929       .  S
C865        C866   1.413       .  A
C865       Br871   1.931       .  S
C866        C867   1.413       .  A
C867        C868   1.405       .  A
C867       Br876   1.934       .  S
C868       Br872   1.931       .  S
C877        C878   1.411       .  A
C877        C882   1.411       .  A
C878        C879   1.410       .  A
C878       Br890   1.931       .  S
C879        C880   1.410       .  A
C879       Br894   1.929       .  S
C880        C883   1.492       .  S
C880        C881   1.410       .  A
C881        C882   1.411       .  A
C881       Br889   1.928       .  S
C882       Br893   1.929       .  S
C883        C884   1.409       .  A
C883        C888   1.408       .  A
C884        C885   1.410       .  A
C884       Br895   1.933       .  S
C885        C886   1.417       .  A
C885       Br891   1.933       .  S
C886        C887   1.418       .  A
C887        C888   1.413       .  A
C887       Br896   1.930       .  S
C888       Br892   1.929       .  S
C897        C898   1.412       .  A
C897        C902   1.410       .  A
C898        C899   1.413       .  A
C898       Br910   1.929       .  S
C899        C900   1.413       .  A
C899       Br914   1.931       .  S
C900        C903   1.502       .  S
C900        C901   1.416       .  A
C901        C902   1.408       .  A
C901       Br909   1.926       .  S
C902       Br913   1.936       .  S
C903        C904   1.403       .  A
C903        C908   1.398       .  A
C904        C905   1.422       .  A
C904       Br915   1.937       .  S
C905        C906   1.442       .  A
C905       Br911   1.917       .  S
C906        C907   1.451       .  A
C907        C908   1.416       .  A
C907       Br916   1.928       .  S
C908       Br912   1.945       .  S
C917        C918   1.410       .  A
C917        C922   1.410       .  A
C918        C919   1.408       .  A
C918       Br930   1.929       .  S
C919        C920   1.409       .  A
C919       Br934   1.928       .  S
C920        C923   1.482       .  S
C920        C921   1.409       .  A
C921        C922   1.405       .  A
C921       Br929   1.930       .  S
C922       Br933   1.933       .  S
C923        C924   1.407       .  A
C923        C928   1.409       .  A
C924        C925   1.404       .  A
C924       Br935   1.932       .  S
C925        C926   1.413       .  A
C925       Br931   1.932       .  S
C926        C927   1.412       .  A
C927        C928   1.410       .  A
C927       Br936   1.930       .  S
C928       Br932   1.928       .  S
C937        C938   1.415       .  A
C937        C942   1.415       .  A
C938        C939   1.405       .  A
C938       Br950   1.934       .  S
C939        C940   1.407       .  A
C939       Br954   1.933       .  S
C940        C943   1.482       .  S
C940        C941   1.407       .  A
C941        C942   1.408       .  A
C941       Br949   1.930       .  S
C942       Br953   1.931       .  S
C943        C944   1.408   1_554  A
C943        C948   1.410   1_554  A
C944        C945   1.404       .  A
C944       Br955   1.930   1_556  S
C945        C946   1.410       .  A
C945       Br951   1.931       .  S
C946        C947   1.411       .  A
C947        C948   1.408       .  A
C947       Br956   1.930       .  S
C948       Br952   1.931   1_556  S
C957        C958   1.418       .  A
C957        C962   1.418       .  A
C958        C959   1.409       .  A
C958       Br970   1.932       .  S
C959        C960   1.405       .  A
C959       Br974   1.930       .  S
C960        C963   1.482       .  S
C960        C961   1.406       .  A
C961        C962   1.406       .  A
C961       Br969   1.933       .  S
C962       Br973   1.932       .  S
C963        C964   1.409       .  A
C963        C968   1.409       .  A
C964        C965   1.406       .  A
C964       Br975   1.928       .  S
C965        C966   1.407       .  A
C965       Br971   1.931       .  S
C966        C967   1.407       .  A
C967        C968   1.406       .  A
C967       Br976   1.929       .  S
C968       Br972   1.930       .  S
C977        C978   1.417       .  A
C977        C982   1.417       .  A
C978        C979   1.407       .  A
C978       Br990   1.932       .  S
C979        C980   1.407       .  A
C979       Br994   1.932       .  S
C980        C983   1.486       .  S
C980        C981   1.407       .  A
C981        C982   1.409       .  A
C981       Br989   1.930       .  S
C982       Br993   1.931       .  S
C983        C984   1.408   1_554  A
C983        C988   1.408   1_554  A
C984        C985   1.408       .  A
C984       Br995   1.931   1_556  S
C985        C986   1.413       .  A
C985       Br991   1.930       .  S
C986        C987   1.413       .  A
C987        C988   1.408       .  A
C987       Br996   1.929       .  S
C988       Br992   1.929   1_556  S
C997        C998   1.413       .  A
C997       C1002   1.414       .  A
C998        C999   1.410       .  A
C998      Br1010   1.930       .  S
C999       C1000   1.409       .  A
C999      Br1014   1.928       .  S
C1000      C1003   1.488       .  S
C1000      C1001   1.408       .  A
C1001      C1002   1.408       .  A
C1001     Br1009   1.932       .  S
C1002     Br1013   1.930       .  S
C1003      C1004   1.407       .  A
C1003      C1008   1.408       .  A
C1004      C1005   1.410       .  A
C1004     Br1015   1.934       .  S
C1005      C1006   1.421       .  A
C1005     Br1011   1.932       .  S
C1006      C1007   1.412       .  A
C1007      C1008   1.410       .  A
C1007     Br1016   1.931       .  S
C1008     Br1012   1.928       .  S
C1017      C1018   1.413       .  A
C1017      C1022   1.416       .  A
C1018      C1019   1.410       .  A
C1018     Br1030   1.930       .  S
C1019      C1020   1.411       .  A
C1019     Br1034   1.931       .  S
C1020      C1023   1.499       .  S
C1020      C1021   1.413       .  A
C1021      C1022   1.413       .  A
C1021     Br1029   1.931       .  S
C1022     Br1033   1.932       .  S
C1023      C1024   1.403       .  A
C1023      C1028   1.397       .  A
C1024      C1025   1.423       .  A
C1024     Br1035   1.937       .  S
C1025      C1026   1.443       .  A
C1025     Br1031   1.919       .  S
C1026      C1027   1.457       .  A
C1027      C1028   1.413       .  A
C1027     Br1036   1.943       .  S
C1028     Br1032   1.943       .  S
C1037      C1038   1.412       .  A
C1037      C1042   1.414       .  A
C1038      C1039   1.412       .  A
C1038     Br1050   1.929       .  S
C1039      C1040   1.410       .  A
C1039     Br1054   1.928       .  S
C1040      C1043   1.491       .  S
C1040      C1041   1.409       .  A
C1041      C1042   1.408       .  A
C1041     Br1049   1.931       .  S
C1042     Br1053   1.933       .  S
C1043      C1044   1.409       .  A
C1043      C1048   1.409       .  A
C1044      C1045   1.409       .  A
C1044     Br1055   1.930       .  S
C1045      C1046   1.414       .  A
C1045     Br1051   1.929       .  S
C1046      C1047   1.415       .  A
C1047      C1048   1.411       .  A
C1047     Br1056   1.930       .  S
C1048     Br1052   1.930       .  S
C1057      C1058   1.416       .  A
C1057      C1062   1.419       .  A
C1058      C1059   1.411       .  A
C1058     Br1070   1.931       .  S
C1059      C1060   1.408       .  A
C1059     Br1074   1.930       .  S
C1060      C1063   1.490       .  S
C1060      C1061   1.407       .  A
C1061      C1062   1.409       .  A
C1061     Br1069   1.932       .  S
C1062     Br1073   1.935       .  S
C1063      C1064   1.408   1_554  A
C1063      C1068   1.410   1_554  A
C1064      C1065   1.407       .  A
C1064     Br1075   1.930   1_556  S
C1065      C1066   1.414       .  A
C1065     Br1071   1.933       .  S
C1066      C1067   1.414       .  A
C1067      C1068   1.412       .  A
C1067     Br1076   1.929       .  S
C1068     Br1072   1.930   1_556  S
C1077      C1078   1.415       .  A
C1077      C1082   1.415       .  A
C1078      C1079   1.410       .  A
C1078     Br1090   1.935       .  S
C1079      C1080   1.412       .  A
C1079     Br1094   1.929       .  S
C1080      C1083   1.498       .  S
C1080      C1081   1.411       .  A
C1081      C1082   1.412       .  A
C1081     Br1089   1.930       .  S
C1082     Br1093   1.929       .  S
C1083      C1084   1.395       .  A
C1083      C1088   1.399       .  A
C1084      C1085   1.411       .  A
C1084     Br1095   1.943       .  S
C1085      C1086   1.451       .  A
C1085     Br1091   1.914       .  S
C1086      C1087   1.454       .  A
C1087      C1088   1.419       .  A
C1087     Br1096   1.939       .  S
C1088     Br1092   1.932       .  S
C1097      C1098   1.415       .  A
C1097      C1102   1.417       .  A
C1098      C1099   1.405       .  A
C1098     Br1110   1.932       .  S
C1099      C1100   1.408       .  A
C1099     Br1114   1.934   1_554  S
C1100      C1103   1.484   1_554  S
C1100      C1101   1.407       .  A
C1101      C1102   1.411       .  A
C1101     Br1109   1.930       .  S
C1102     Br1113   1.931       .  S
C1103      C1104   1.410       .  A
C1103      C1108   1.408       .  A
C1104      C1105   1.409       .  A
C1104     Br1115   1.929       .  S
C1105      C1106   1.411       .  A
C1105     Br1111   1.926       .  S
C1106      C1107   1.410       .  A
C1107      C1108   1.405       .  A
C1107     Br1116   1.932       .  S
C1108     Br1112   1.929       .  S
C1117      C1118   1.418       .  A
C1117      C1122   1.419       .  A
C1118      C1119   1.409       .  A
C1118     Br1130   1.931       .  S
C1119      C1120   1.406       .  A
C1119     Br1134   1.930       .  S
C1120      C1123   1.483       .  S
C1120      C1121   1.406       .  A
C1121      C1122   1.407       .  A
C1121     Br1129   1.934       .  S
C1122     Br1133   1.934       .  S
C1123      C1124   1.409       .  A
C1123      C1128   1.409       .  A
C1124      C1125   1.406       .  A
C1124     Br1135   1.928       .  S
C1125      C1126   1.409       .  A
C1125     Br1131   1.930       .  S
C1126      C1127   1.412       .  A
C1127      C1128   1.407       .  A
C1127     Br1136   1.932       .  S
C1128     Br1132   1.931       .  S
C1137      C1138   1.409       .  A
C1137      C1142   1.408       .  A
C1138      C1139   1.409       .  A
C1138     Br1150   1.929       .  S
C1139      C1140   1.410       .  A
C1139     Br1154   1.927       .  S
C1140      C1143   1.487       .  S
C1140      C1141   1.409       .  A
C1141      C1142   1.407       .  A
C1141     Br1149   1.928       .  S
C1142     Br1153   1.930       .  S
C1143      C1144   1.407       .  A
C1143      C1148   1.407       .  A
C1144      C1145   1.406       .  A
C1144     Br1155   1.934       .  S
C1145      C1146   1.416       .  A
C1145     Br1151   1.930       .  S
C1146      C1147   1.418       .  A
C1147      C1148   1.413       .  A
C1147     Br1156   1.929       .  S
C1148     Br1152   1.928       .  S
C1157      C1158   1.413       .  A
C1157      C1162   1.414       .  A
C1158      C1159   1.411       .  A
C1158     Br1170   1.929       .  S
C1159      C1160   1.408       .  A
C1159     Br1174   1.929       .  S
C1160      C1163   1.488       .  S
C1160      C1161   1.408       .  A
C1161      C1162   1.408       .  A
C1161     Br1169   1.931       .  S
C1162     Br1173   1.931       .  S
C1163      C1164   1.409       .  A
C1163      C1168   1.408       .  A
C1164      C1165   1.408       .  A
C1164     Br1175   1.929       .  S
C1165      C1166   1.412       .  A
C1165     Br1171   1.932       .  S
C1166      C1167   1.415       .  A
C1167      C1168   1.409       .  A
C1167     Br1176   1.932       .  S
C1168     Br1172   1.930       .  S
C1177      C1178   1.417       .  A
C1177      C1182   1.413       .  A
C1178      C1179   1.407       .  A
C1178     Br1190   1.931       .  S
C1179      C1180   1.407       .  A
C1179     Br1194   1.933       .  S
C1180      C1183   1.486       .  S
C1180      C1181   1.408       .  A
C1181      C1182   1.410       .  A
C1181     Br1189   1.930       .  S
C1182     Br1193   1.928       .  S
C1183      C1184   1.409   1_554  A
C1183      C1188   1.410   1_554  A
C1184      C1185   1.406       .  A
C1184     Br1195   1.930   1_556  S
C1185      C1186   1.411       .  A
C1185     Br1191   1.933       .  S
C1186      C1187   1.411       .  A
C1187      C1188   1.409       .  A
C1187     Br1196   1.931       .  S
C1188     Br1192   1.929   1_556  S
C1197      C1198   1.413       .  A
C1197      C1202   1.414       .  A
C1198      C1199   1.408       .  A
C1198     Br1210   1.931       .  S
C1199      C1200   1.408       .  A
C1199     Br1214   1.931       .  S
C1200      C1203   1.488       .  S
C1200      C1201   1.409       .  A
C1201      C1202   1.411       .  A
C1201     Br1209   1.929       .  S
C1202     Br1213   1.930       .  S
C1203      C1204   1.409       .  A
C1203      C1208   1.409       .  A
C1204      C1205   1.413       .  A
C1204     Br1215   1.929       .  S
C1205      C1206   1.418       .  A
C1205     Br1211   1.931       .  S
C1206      C1207   1.413       .  A
C1207      C1208   1.405       .  A
C1207     Br1216   1.934       .  S
C1208     Br1212   1.934       .  S
C1217      C1218   1.419       .  A
C1217      C1222   1.414       .  A
C1218      C1219   1.408       .  A
C1218     Br1230   1.930       .  S
C1219      C1220   1.406       .  A
C1219     Br1234   1.932       .  S
C1220      C1223   1.485       .  S
C1220      C1221   1.407       .  A
C1221      C1222   1.409       .  A
C1221     Br1229   1.930       .  S
C1222     Br1233   1.932       .  S
C1223      C1224   1.408   1_554  A
C1223      C1228   1.410   1_554  A
C1224      C1225   1.405       .  A
C1224     Br1235   1.930   1_556  S
C1225      C1226   1.407       .  A
C1225     Br1231   1.924       .  S
C1226      C1227   1.409       .  A
C1227      C1228   1.410       .  A
C1227     Br1236   1.928       .  S
C1228     Br1232   1.928   1_556  S
C1237      C1238   1.419       .  A
C1237      C1242   1.417       .  A
C1238      C1239   1.412       .  A
C1238     Br1250   1.931       .  S
C1239      C1240   1.408       .  A
C1239     Br1254   1.931       .  S
C1240      C1243   1.493       .  S
C1240      C1241   1.409       .  A
C1241      C1242   1.412       .  A
C1241     Br1249   1.930       .  S
C1242     Br1253   1.930       .  S
C1243      C1244   1.410       .  A
C1243      C1248   1.408       .  A
C1244      C1245   1.414       .  A
C1244     Br1255   1.928       .  S
C1245      C1246   1.414       .  A
C1245     Br1251   1.930       .  S
C1246      C1247   1.416       .  A
C1247      C1248   1.408       .  A
C1247     Br1256   1.930       .  S
C1248     Br1252   1.932       .  S
C1257      C1258   1.411       .  A
C1257      C1262   1.409       .  A
C1258      C1259   1.402       .  A
C1258     Br1270   1.936       .  S
C1259      C1260   1.408       .  A
C1259     Br1274   1.925       .  S
C1260      C1263   1.481       .  S
C1260      C1261   1.409       .  A
C1261      C1262   1.406       .  A
C1261     Br1269   1.930       .  S
C1262     Br1273   1.928       .  S
C1263      C1264   1.396       .  A
C1263      C1268   1.394       .  A
C1264      C1265   1.412       .  A
C1264     Br1275   1.942       .  S
C1265      C1266   1.450       .  A
C1265     Br1271   1.927       .  S
C1266      C1267   1.456       .  A
C1267      C1268   1.410       .  A
C1267     Br1276   1.950       .  S
C1268     Br1272   1.938       .  S
C1277      C1278   1.414       .  A
C1277      C1282   1.415       .  A
C1278      C1279   1.407       .  A
C1278     Br1290   1.933       .  S
C1279      C1280   1.408       .  A
C1279     Br1294   1.931       .  S
C1280      C1283   1.488       .  S
C1280      C1281   1.408       .  A
C1281      C1282   1.410       .  A
C1281     Br1289   1.929       .  S
C1282     Br1293   1.929       .  S
C1283      C1284   1.410       .  A
C1283      C1288   1.408       .  A
C1284      C1285   1.412       .  A
C1284     Br1295   1.931       .  S
C1285      C1286   1.415       .  A
C1285     Br1291   1.931       .  S
C1286      C1287   1.412       .  A
C1287      C1288   1.407       .  A
C1287     Br1296   1.931       .  S
C1288     Br1292   1.930       .  S
C1297      C1298   1.413       .  A
C1297      C1302   1.412       .  A
C1298      C1299   1.406       .  A
C1298     Br1310   1.933       .  S
C1299      C1300   1.408       .  A
C1299     Br1314   1.930       .  S
C1300      C1303   1.480       .  S
C1300      C1301   1.408       .  A
C1301      C1302   1.405       .  A
C1301     Br1309   1.930       .  S
C1302     Br1313   1.933       .  S
C1303      C1304   1.408       .  A
C1303      C1308   1.407       .  A
C1304      C1305   1.408       .  A
C1304     Br1315   1.930       .  S
C1305      C1306   1.412       .  A
C1305     Br1311   1.928       .  S
C1306      C1307   1.413       .  A
C1307      C1308   1.405       .  A
C1307     Br1316   1.931       .  S
C1308     Br1312   1.932       .  S
C1317      C1318   1.415       .  A
C1317      C1322   1.415       .  A
C1318      C1319   1.406       .  A
C1318     Br1330   1.931       .  S
C1319      C1320   1.408       .  A
C1319     Br1334   1.934       .  S
C1320      C1323   1.486       .  S
C1320      C1321   1.408       .  A
C1321      C1322   1.411       .  A
C1321     Br1329   1.928       .  S
C1322     Br1333   1.931       .  S
C1323      C1324   1.408       .  A
C1323      C1328   1.409       .  A
C1324      C1325   1.408       .  A
C1324     Br1335   1.928       .  S
C1325      C1326   1.411       .  A
C1325     Br1331   1.929       .  S
C1326      C1327   1.414       .  A
C1327      C1328   1.409       .  A
C1327     Br1336   1.932       .  S
C1328     Br1332   1.930       .  S
C1337      C1338   1.411       .  A
C1337      C1342   1.414       .  A
C1338      C1339   1.406       .  A
C1338     Br1350   1.938       .  S
C1339      C1340   1.415       .  A
C1339     Br1354   1.926       .  S
C1340      C1343   1.499       .  S
C1340      C1341   1.412       .  A
C1341      C1342   1.412       .  A
C1341     Br1349   1.931       .  S
C1342     Br1353   1.930       .  S
C1343      C1344   1.404       .  A
C1343      C1348   1.397       .  A
C1344      C1345   1.420       .  A
C1344     Br1355   1.939       .  S
C1345      C1346   1.442       .  A
C1345     Br1351   1.918       .  S
C1346      C1347   1.450       .  A
C1347      C1348   1.416       .  A
C1347     Br1356   1.927       .  S
C1348     Br1352   1.943       .  S
C1357      C1358   1.414       .  A
C1357      C1362   1.415       .  A
C1358      C1359   1.411       .  A
C1358     Br1370   1.930       .  S
C1359      C1360   1.409       .  A
C1359     Br1374   1.929       .  S
C1360      C1363   1.489       .  S
C1360      C1361   1.409       .  A
C1361      C1362   1.409       .  A
C1361     Br1369   1.932       .  S
C1362     Br1373   1.932       .  S
C1363      C1364   1.409       .  A
C1363      C1368   1.409       .  A
C1364      C1365   1.408       .  A
C1364     Br1375   1.930       .  S
C1365      C1366   1.413       .  A
C1365     Br1371   1.931       .  S
C1366      C1367   1.415       .  A
C1367      C1368   1.411       .  A
C1367     Br1376   1.931       .  S
C1368     Br1372   1.929       .  S
C1377      C1378   1.413       .  A
C1377      C1382   1.414       .  A
C1378      C1379   1.407       .  A
C1378     Br1390   1.930       .  S
C1379      C1380   1.407       .  A
C1379     Br1394   1.929       .  S
C1380      C1383   1.482   1_554  S
C1380      C1381   1.408       .  A
C1381      C1382   1.406       .  A
C1381     Br1389   1.931       .  S
C1382     Br1393   1.934       .  S
C1383      C1384   1.407       .  A
C1383      C1388   1.409       .  A
C1384      C1385   1.406       .  A
C1384     Br1395   1.931       .  S
C1385      C1386   1.413       .  A
C1385     Br1391   1.932       .  S
C1386      C1387   1.411       .  A
C1387      C1388   1.408       .  A
C1387     Br1396   1.931       .  S
C1388     Br1392   1.930       .  S
C1397      C1398   1.414       .  A
C1397      C1402   1.415       .  A
C1398      C1399   1.412       .  A
C1398     Br1410   1.930       .  S
C1399      C1400   1.410       .  A
C1399     Br1414   1.929       .  S
C1400      C1403   1.490       .  S
C1400      C1401   1.409       .  A
C1401      C1402   1.408       .  A
C1401     Br1409   1.932       .  S
C1402     Br1413   1.932       .  S
C1403      C1404   1.411       .  A
C1403      C1408   1.410       .  A
C1404      C1405   1.411       .  A
C1404     Br1415   1.928       .  S
C1405      C1406   1.411       .  A
C1405     Br1411   1.930       .  S
C1406      C1407   1.411       .  A
C1407      C1408   1.406       .  A
C1407     Br1416   1.932       .  S
C1408     Br1412   1.931       .  S
C1417      C1418   1.408       .  A
C1417      C1422   1.407       .  A
C1418      C1419   1.405       .  A
C1418     Br1430   1.931       .  S
C1419      C1420   1.409       .  A
C1419     Br1434   1.930       .  S
C1420      C1423   1.481   1_554  S
C1420      C1421   1.409       .  A
C1421      C1422   1.406       .  A
C1421     Br1429   1.929       .  S
C1422     Br1433   1.929       .  S
C1423      C1424   1.407       .  A
C1423      C1428   1.405       .  A
C1424      C1425   1.409       .  A
C1424     Br1435   1.931       .  S
C1425      C1426   1.418       .  A
C1425     Br1431   1.932       .  S
C1426      C1427   1.416       .  A
C1427      C1428   1.404       .  A
C1427     Br1436   1.932       .  S
C1428     Br1432   1.932   1_556  S
C1437      C1438   1.417       .  A
C1437      C1442   1.420       .  A
C1438      C1439   1.410       .  A
C1438     Br1450   1.934       .  S
C1439      C1440   1.408       .  A
C1439     Br1454   1.932       .  S
C1440      C1443   1.491       .  S
C1440      C1441   1.407       .  A
C1441      C1442   1.412       .  A
C1441     Br1449   1.930       .  S
C1442     Br1453   1.931       .  S
C1443      C1444   1.408       .  A
C1443      C1448   1.409       .  A
C1444      C1445   1.410       .  A
C1444     Br1455   1.932       .  S
C1445      C1446   1.414       .  A
C1445     Br1451   1.927       .  S
C1446      C1447   1.413       .  A
C1447      C1448   1.412       .  A
C1447     Br1456   1.929       .  S
C1448     Br1452   1.928       .  S
C1457      C1458   1.452       .  A
C1457      C1462   1.461       .  A
C1458      C1459   1.411       .  A
C1458     Br1470   1.916       .  S
C1459      C1460   1.393       .  A
C1459     Br1474   1.948       .  S
C1460      C1463   1.494       .  S
C1460      C1461   1.397       .  A
C1461      C1462   1.423       .  A
C1461     Br1469   1.940       .  S
C1462     Br1473   1.940       .  S
C1463      C1464   1.409       .  A
C1463      C1468   1.409       .  A
C1464      C1465   1.407       .  A
C1464     Br1475   1.928       .  S
C1465      C1466   1.415       .  A
C1465     Br1471   1.936       .  S
C1466      C1467   1.415       .  A
C1467      C1468   1.413       .  A
C1467     Br1476   1.927       .  S
C1468     Br1472   1.930       .  S
C1477      C1478   1.448       .  A
C1477      C1482   1.459       .  A
C1478      C1479   1.417       .  A
C1478     Br1490   1.931       .  S
C1479      C1480   1.398       .  A
C1479     Br1494   1.935       .  S
C1480      C1483   1.484       .  S
C1480      C1481   1.393       .  A
C1481      C1482   1.401       .  A
C1481     Br1489   1.942       .  S
C1482     Br1493   1.962       .  S
C1483      C1484   1.403       .  A
C1483      C1488   1.410       .  A
C1484      C1485   1.407       .  A
C1484     Br1495   1.931       .  S
C1485      C1486   1.422       .  A
C1485     Br1491   1.928       .  S
C1486      C1487   1.414       .  A
C1487      C1488   1.408       .  A
C1487     Br1496   1.935       .  S
C1488     Br1492   1.933       .  S
C1497      C1498   1.458       .  A
C1497      C1502   1.453       .  A
C1498      C1499   1.422       .  A
C1498     Br1510   1.945       .  S
C1499      C1500   1.400       .  A
C1499     Br1514   1.942       .  S
C1500      C1503   1.500       .  S
C1500      C1501   1.398       .  A
C1501      C1502   1.407       .  A
C1501     Br1509   1.932       .  S
C1502     Br1513   1.950       .  S
C1503      C1504   1.398       .  A
C1503      C1508   1.398       .  A
C1504      C1505   1.421       .  A
C1504     Br1515   1.938       .  S
C1505      C1506   1.462       .  A
C1505     Br1511   1.951       .  S
C1506      C1507   1.451       .  A
C1507      C1508   1.414       .  A
C1507     Br1516   1.927       .  S
C1508     Br1512   1.944       .  S
C1517      C1518   1.450       .  A
C1517      C1522   1.455       .  A
C1518      C1519   1.416       .  A
C1518     Br1530   1.924       .  S
C1519      C1520   1.400       .  A
C1519     Br1534   1.945       .  S
C1520      C1523   1.494       .  S
C1520      C1521   1.398       .  A
C1521      C1522   1.417       .  A
C1521     Br1529   1.936       .  S
C1522     Br1533   1.947       .  S
C1523      C1524   1.412       .  A
C1523      C1528   1.409       .  A
C1524      C1525   1.411       .  A
C1524     Br1535   1.929       .  S
C1525      C1526   1.411       .  A
C1525     Br1531   1.929       .  S
C1526      C1527   1.413       .  A
C1527      C1528   1.406       .  A
C1527     Br1536   1.934       .  S
C1528     Br1532   1.928       .  S
C1537      C1538   1.453       .  A
C1537      C1542   1.448       .  A
C1538      C1539   1.418       .  A
C1538     Br1550   1.926       .  S
C1539      C1540   1.400       .  A
C1539     Br1554   1.940       .  S
C1540      C1543   1.500   1_655  S
C1540      C1541   1.397       .  A
C1541      C1542   1.413       .  A
C1541     Br1549   1.938       .  S
C1542     Br1553   1.915       .  S
C1543      C1544   1.405       .  A
C1543      C1548   1.403       .  A
C1544      C1545   1.416       .  A
C1544     Br1555   1.937       .  S
C1545      C1546   1.446       .  A
C1545     Br1551   1.928       .  S
C1546      C1547   1.439       .  A
C1547      C1548   1.410       .  A
C1547     Br1556   1.918       .  S
C1548     Br1552   1.934       .  S
C1557      C1558   1.452       .  A
C1557      C1562   1.462       .  A
C1558      C1559   1.418       .  A
C1558     Br1570   1.942       .  S
C1559      C1560   1.400       .  A
C1559     Br1574   1.938       .  S
C1560      C1563   1.495       .  S
C1560      C1561   1.397       .  A
C1561      C1562   1.411       .  A
C1561     Br1569   1.940       .  S
C1562     Br1573   1.960       .  S
C1563      C1564   1.409       .  A
C1563      C1568   1.411       .  A
C1564      C1565   1.411       .  A
C1564     Br1575   1.928       .  S
C1565      C1566   1.415       .  A
C1565     Br1571   1.929       .  S
C1566      C1567   1.414       .  A
C1567      C1568   1.409       .  A
C1567     Br1576   1.934       .  S
C1568     Br1572   1.929       .  S
C1577      C1578   1.458       .  A
C1577      C1582   1.446       .  A
C1578      C1579   1.419       .  A
C1578     Br1590   1.933       .  S
C1579      C1580   1.392       .  A
C1579     Br1594   1.939   1_655  S
C1580      C1583   1.506   1_655  S
C1580      C1581   1.402       .  A
C1581      C1582   1.420       .  A
C1581     Br1589   1.935       .  S
C1582     Br1593   1.924       .  S
C1583      C1584   1.395       .  A
C1583      C1588   1.405       .  A
C1584      C1585   1.389       .  A
C1584     Br1595   1.929       .  S
C1585      C1586   1.442       .  A
C1585     Br1591   1.928       .  S
C1586      C1587   1.458       .  A
C1587      C1588   1.434       .  A
C1587     Br1596   1.927       .  S
C1588     Br1592   1.936       .  S
C1597      C1598   1.446       .  A
C1597      C1602   1.448       .  A
C1598      C1599   1.411       .  A
C1598     Br1610   1.930       .  S
C1599      C1600   1.396       .  A
C1599     Br1614   1.943       .  S
C1600      C1603   1.488       .  S
C1600      C1601   1.399       .  A
C1601      C1602   1.412       .  A
C1601     Br1609   1.934       .  S
C1602     Br1613   1.943       .  S
C1603      C1604   1.392       .  A
C1603      C1608   1.402       .  A
C1604      C1605   1.406       .  A
C1604     Br1615   1.943       .  S
C1605      C1606   1.453       .  A
C1605     Br1611   1.931       .  S
C1606      C1607   1.449       .  A
C1607      C1608   1.420       .  A
C1607     Br1616   1.937       .  S
C1608     Br1612   1.939       .  S
C1617      C1618   1.409       .  A
C1617      C1622   1.412       .  A
C1618      C1619   1.409       .  A
C1618     Br1630   1.928       .  S
C1619      C1620   1.411       .  A
C1619     Br1634   1.929       .  S
C1620      C1623   1.491       .  S
C1620      C1621   1.410       .  A
C1621      C1622   1.406       .  A
C1621     Br1629   1.929       .  S
C1622     Br1633   1.933       .  S
C1623      C1624   1.397       .  A
C1623      C1628   1.399       .  A
C1624      C1625   1.417       .  A
C1624     Br1635   1.938       .  S
C1625      C1626   1.453       .  A
C1625     Br1631   1.940       .  S
C1626      C1627   1.452       .  A
C1627      C1628   1.414       .  A
C1627     Br1636   1.927       .  S
C1628     Br1632   1.945       .  S
C1637      C1638   1.458       .  A
C1637      C1642   1.456       .  A
C1638      C1639   1.408       .  A
C1638     Br1650   1.930       .  S
C1639      C1640   1.390       .  A
C1639     Br1654   1.944       .  S
C1640      C1643   1.484       .  S
C1640      C1641   1.396       .  A
C1641      C1642   1.417       .  A
C1641     Br1649   1.950       .  S
C1642     Br1653   1.921       .  S
C1643      C1644   1.397       .  A
C1643      C1648   1.394       .  A
C1644      C1645   1.414       .  A
C1644     Br1655   1.949       .  S
C1645      C1646   1.465       .  A
C1645     Br1651   1.952       .  S
C1646      C1647   1.439       .  A
C1647      C1648   1.406       .  A
C1647     Br1656   1.936       .  S
C1648     Br1652   1.940       .  S
C1657      C1658   1.469       .  A
C1657      C1662   1.446       .  A
C1658      C1659   1.418       .  A
C1658     Br1670   1.965       .  S
C1659      C1660   1.397       .  A
C1659     Br1674   1.945       .  S
C1660      C1663   1.501       .  S
C1660      C1661   1.398       .  A
C1661      C1662   1.419       .  A
C1661     Br1669   1.940       .  S
C1662     Br1673   1.924       .  S
C1663      C1664   1.411       .  A
C1663      C1668   1.412       .  A
C1664      C1665   1.409       .  A
C1664     Br1675   1.933       .  S
C1665      C1666   1.417       .  A
C1665     Br1671   1.936       .  S
C1666      C1667   1.416       .  A
C1667      C1668   1.416       .  A
C1667     Br1676   1.930       .  S
C1668     Br1672   1.930       .  S
C1677      C1678   1.449       .  A
C1677      C1682   1.457       .  A
C1678      C1679   1.413       .  A
C1678     Br1690   1.917       .  S
C1679      C1680   1.396       .  A
C1679     Br1694   1.937       .  S
C1680      C1683   1.490       .  S
C1680      C1681   1.396       .  A
C1681      C1682   1.406       .  A
C1681     Br1689   1.941       .  S
C1682     Br1693   1.937       .  S
C1683      C1684   1.406       .  A
C1683      C1688   1.412       .  A
C1684      C1685   1.397       .  A
C1684     Br1695   1.929       .  S
C1685      C1686   1.414       .  A
C1685     Br1691   1.936       .  S
C1686      C1687   1.447       .  A
C1687      C1688   1.421       .  A
C1687     Br1696   1.930       .  S
C1688     Br1692   1.938       .  S
C1697      C1698   1.458       .  A
C1697      C1702   1.417       .  A
C1698      C1699   1.426       .  A
C1698     Br1710   1.933       .  S
C1699      C1700   1.410       .  A
C1699     Br1714   1.940       .  S
C1700      C1703   1.495       .  S
C1700      C1701   1.402       .  A
C1701      C1702   1.399       .  A
C1701     Br1709   1.922       .  S
C1702     Br1713   1.939       .  S
C1703      C1704   1.401       .  A
C1703      C1708   1.397       .  A
C1704      C1705   1.413       .  A
C1704     Br1715   1.942       .  S
C1705      C1706   1.446       .  A
C1705     Br1711   1.919       .  S
C1706      C1707   1.449       .  A
C1707      C1708   1.416       .  A
C1707     Br1716   1.930       .  S
C1708     Br1712   1.935       .  S
C1717      C1718   1.463       .  A
C1717      C1722   1.455       .  A
C1718      C1719   1.411       .  A
C1718     Br1730   1.940       .  S
C1719      C1720   1.392       .  A
C1719     Br1734   1.944       .  S
C1720      C1723   1.493       .  S
C1720      C1721   1.394       .  A
C1721      C1722   1.418       .  A
C1721     Br1729   1.938       .  S
C1722     Br1733   1.921       .  S
C1723      C1724   1.406       .  A
C1723      C1728   1.410       .  A
C1724      C1725   1.412       .  A
C1724     Br1735   1.930       .  S
C1725      C1726   1.421       .  A
C1725     Br1731   1.929       .  S
C1726      C1727   1.414       .  A
C1727      C1728   1.409       .  A
C1727     Br1736   1.936       .  S
C1728     Br1732   1.930       .  S
C1737      C1738   1.452       .  A
C1737      C1742   1.459       .  A
C1738      C1739   1.401       .  A
C1738     Br1750   1.933       .  S
C1739      C1740   1.394       .  A
C1739     Br1754   1.927       .  S
C1740      C1743   1.494       .  S
C1740      C1741   1.397       .  A
C1741      C1742   1.418       .  A
C1741     Br1749   1.937       .  S
C1742     Br1753   1.930       .  S
C1743      C1744   1.395       .  A
C1743      C1748   1.395       .  A
C1744      C1745   1.414       .  A
C1744     Br1755   1.944       .  S
C1745      C1746   1.460       .  A
C1745     Br1751   1.940       .  S
C1746      C1747   1.459       .  A
C1747      C1748   1.421       .  A
C1747     Br1756   1.928       .  S
C1748     Br1752   1.943       .  S
C1757      C1758   1.448       .  A
C1757      C1762   1.458       .  A
C1758      C1759   1.398       .  A
C1758     Br1770   1.917       .  S
C1759      C1760   1.384       .  A
C1759     Br1774   1.932   1_655  S
C1760      C1763   1.487   1_655  S
C1760      C1761   1.399       .  A
C1761      C1762   1.426       .  A
C1761     Br1769   1.936       .  S
C1762     Br1773   1.936       .  S
C1763      C1764   1.401       .  A
C1763      C1768   1.399       .  A
C1764      C1765   1.418       .  A
C1764     Br1775   1.931       .  S
C1765      C1766   1.440       .  A
C1765     Br1771   1.945       .  S
C1766      C1767   1.450       .  A
C1767      C1768   1.404       .  A
C1767     Br1776   1.952       .  S
C1768     Br1772   1.937       .  S
C1777      C1778   1.449       .  A
C1777      C1782   1.442       .  A
C1778      C1779   1.419       .  A
C1778     Br1790   1.935       .  S
C1779      C1780   1.399       .  A
C1779     Br1794   1.935       .  S
C1780      C1783   1.490       .  S
C1780      C1781   1.394       .  A
C1781      C1782   1.407       .  A
C1781     Br1789   1.942       .  S
C1782     Br1793   1.912       .  S
C1783      C1784   1.404       .  A
C1783      C1788   1.411       .  A
C1784      C1785   1.408       .  A
C1784     Br1795   1.931       .  S
C1785      C1786   1.423       .  A
C1785     Br1791   1.932       .  S
C1786      C1787   1.412       .  A
C1787      C1788   1.411       .  A
C1787     Br1796   1.933       .  S
C1788     Br1792   1.930       .  S
C1797      C1798   1.467       .  A
C1797      C1802   1.414       .  A
C1798      C1799   1.424       .  A
C1798     Br1810   1.951       .  S
C1799      C1800   1.405       .  A
C1799     Br1814   1.940       .  S
C1800      C1803   1.495       .  S
C1800      C1801   1.403       .  A
C1801      C1802   1.394       .  A
C1801     Br1809   1.925       .  S
C1802     Br1813   1.926       .  S
C1803      C1804   1.396       .  A
C1803      C1808   1.403       .  A
C1804      C1805   1.403       .  A
C1804     Br1815   1.937       .  S
C1805      C1806   1.454       .  A
C1805     Br1811   1.942       .  S
C1806      C1807   1.441       .  A
C1807      C1808   1.420       .  A
C1807     Br1816   1.899       .  S
C1808     Br1812   1.944       .  S
C1817      C1818   1.445       .  A
C1817      C1822   1.439       .  A
C1818      C1819   1.409       .  A
C1818     Br1830   1.940       .  S
C1819      C1820   1.404       .  A
C1819     Br1834   1.935       .  S
C1820      C1823   1.502       .  S
C1820      C1821   1.405       .  A
C1821      C1822   1.419       .  A
C1821     Br1829   1.933       .  S
C1822     Br1833   1.929       .  S
C1823      C1824   1.394       .  A
C1823      C1828   1.398   1_655  A
C1824      C1825   1.417   1_655  A
C1824     Br1835   1.942       .  S
C1825      C1826   1.471       .  A
C1825     Br1831   1.969       .  S
C1826      C1827   1.448       .  A
C1827      C1828   1.419       .  A
C1827     Br1836   1.923       .  S
C1828     Br1832   1.942   1_455  S
C1837      C1838   1.467       .  A
C1837      C1842   1.446       .  A
C1838      C1839   1.416       .  A
C1838     Br1850   1.955       .  S
C1839      C1840   1.392       .  A
C1839     Br1854   1.943       .  S
C1840      C1843   1.498       .  S
C1840      C1841   1.401       .  A
C1841      C1842   1.419       .  A
C1841     Br1849   1.939       .  S
C1842     Br1853   1.930       .  S
C1843      C1844   1.405       .  A
C1843      C1848   1.402       .  A
C1844      C1845   1.404       .  A
C1844     Br1855   1.933       .  S
C1845      C1846   1.446       .  A
C1845     Br1851   1.954       .  S
C1846      C1847   1.449       .  A
C1847      C1848   1.419       .  A
C1847     Br1856   1.939       .  S
C1848     Br1852   1.939       .  S
C1857      C1858   1.470       .  A
C1857      C1862   1.458       .  A
C1858      C1859   1.413       .  A
C1858     Br1870   1.946       .  S
C1859      C1860   1.386       .  A
C1859     Br1874   1.944       .  S
C1860      C1863   1.494       .  S
C1860      C1861   1.392       .  A
C1861      C1862   1.422       .  A
C1861     Br1869   1.943       .  S
C1862     Br1873   1.917       .  S
C1863      C1864   1.411       .  A
C1863      C1868   1.411       .  A
C1864      C1865   1.406       .  A
C1864     Br1875   1.933       .  S
C1865      C1866   1.412       .  A
C1865     Br1871   1.934       .  S
C1866      C1867   1.412       .  A
C1867      C1868   1.414       .  A
C1867     Br1876   1.929       .  S
C1868     Br1872   1.927       .  S
C1877      C1878   1.414       .  A
C1877      C1882   1.412       .  A
C1878      C1879   1.406       .  A
C1878     Br1890   1.937       .  S
C1879      C1880   1.413       .  A
C1879     Br1894   1.935       .  S
C1880      C1883   1.493       .  S
C1880      C1881   1.409       .  A
C1881      C1882   1.412       .  A
C1881     Br1889   1.928       .  S
C1882     Br1893   1.926       .  S
C1883      C1884   1.393       .  A
C1883      C1888   1.398       .  A
C1884      C1885   1.410       .  A
C1884     Br1895   1.936       .  S
C1885      C1886   1.450       .  A
C1885     Br1891   1.939       .  S
C1886      C1887   1.451       .  A
C1887      C1888   1.417       .  A
C1887     Br1896   1.921       .  S
C1888     Br1892   1.949       .  S
C1897      C1898   1.454       .  A
C1897      C1902   1.454       .  A
C1898      C1899   1.415       .  A
C1898     Br1910   1.930       .  S
C1899      C1900   1.394       .  A
C1899     Br1914   1.941       .  S
C1900      C1903   1.507       .  S
C1900      C1901   1.394       .  A
C1901      C1902   1.417       .  A
C1901     Br1909   1.935       .  S
C1902     Br1913   1.953       .  S
C1903      C1904   1.405       .  A
C1903      C1908   1.409       .  A
C1904      C1905   1.421       .  A
C1904     Br1915   1.930       .  S
C1905      C1906   1.440       .  A
C1905     Br1911   1.947       .  S
C1906      C1907   1.446       .  A
C1907      C1908   1.409       .  A
C1907     Br1916   1.948       .  S
C1908     Br1912   1.936       .  S
C1917      C1918   1.412       .  A
C1917      C1922   1.422       .  A
C1918      C1919   1.411       .  A
C1918     Br1930   1.934       .  S
C1919      C1920   1.413       .  A
C1919     Br1934   1.927       .  S
C1920      C1923   1.500       .  S
C1920      C1921   1.407       .  A
C1921      C1922   1.414       .  A
C1921     Br1929   1.928       .  S
C1922     Br1933   1.928       .  S
C1923      C1924   1.395       .  A
C1923      C1928   1.403       .  A
C1924      C1925   1.406       .  A
C1924     Br1935   1.942       .  S
C1925      C1926   1.455       .  A
C1925     Br1931   1.947       .  S
C1926      C1927   1.447       .  A
C1927      C1928   1.426       .  A
C1927     Br1936   1.928       .  S
C1928     Br1932   1.931       .  S
C1937      C1938   1.439       .  A
C1937      C1942   1.432       .  A
C1938      C1939   1.395       .  A
C1938     Br1950   1.939       .  S
C1939      C1940   1.412       .  A
C1939     Br1954   1.938       .  S
C1940      C1943   1.530       .  S
C1940      C1941   1.433       .  A
C1941      C1942   1.443       .  A
C1941     Br1949   1.926       .  S
C1942     Br1953   1.924       .  S
C1943      C1944   1.416       .  A
C1943      C1948   1.408       .  A
C1944      C1945   1.427       .  A
C1944     Br1955   1.929       .  S
C1945      C1946   1.450       .  A
C1945     Br1951   1.930       .  S
C1946      C1947   1.447       .  A
C1947      C1948   1.408       .  A
C1947     Br1956   1.941       .  S
C1948     Br1952   1.927       .  S
C1957      C1958   1.458       .  A
C1957      C1962   1.452       .  A
C1958      C1959   1.407       .  A
C1958     Br1970   1.952       .  S
C1959      C1960   1.392       .  A
C1959     Br1974   1.938       .  S
C1960      C1963   1.488       .  S
C1960      C1961   1.398       .  A
C1961      C1962   1.417       .  A
C1961     Br1969   1.943       .  S
C1962     Br1973   1.924       .  S
C1963      C1964   1.410       .  A
C1963      C1968   1.409       .  A
C1964      C1965   1.402       .  A
C1964     Br1975   1.931       .  S
C1965      C1966   1.412       .  A
C1965     Br1971   1.936       .  S
C1966      C1967   1.413       .  A
C1967      C1968   1.412       .  A
C1967     Br1976   1.927       .  S
C1968     Br1972   1.928       .  S
C1977      C1978   1.454       .  A
C1977      C1982   1.445       .  A
C1978      C1979   1.427       .  A
C1978     Br1990   1.929       .  S
C1979      C1980   1.407       .  A
C1979     Br1994   1.932       .  S
C1980      C1983   1.499       .  S
C1980      C1981   1.393       .  A
C1981      C1982   1.394       .  A
C1981     Br1989   1.924       .  S
C1982     Br1993   1.934       .  S
C1983      C1984   1.398       .  A
C1983      C1988   1.412       .  A
C1984      C1985   1.390       .  A
C1984     Br1995   1.930       .  S
C1985      C1986   1.439       .  A
C1985     Br1991   1.934       .  S
C1986      C1987   1.445       .  A
C1987      C1988   1.433       .  A
C1987     Br1996   1.942       .  S
C1988     Br1992   1.928       .  S
C1997      C1998   1.461       .  A
C1997      C2002   1.454       .  A
C1998      C1999   1.417       .  A
C1998     Br2010   1.936       .  S
C1999      C2000   1.394       .  A
C1999     Br2014   1.937       .  S
C2000      C2003   1.491       .  S
C2000      C2001   1.389       .  A
C2001      C2002   1.410       .  A
C2001     Br2009   1.941       .  S
C2002     Br2013   1.919       .  S
C2003      C2004   1.392       .  A
C2003      C2008   1.402       .  A
C2004      C2005   1.406       .  A
C2004     Br2015   1.934       .  S
C2005      C2006   1.445       .  A
C2005     Br2011   1.930       .  S
C2006      C2007   1.447       .  A
C2007      C2008   1.422       .  A
C2007     Br2016   1.933       .  S
C2008     Br2012   1.935       .  S
C2017      C2018   1.415       .  A
C2017      C2022   1.412       .  A
C2018      C2019   1.408       .  A
C2018     Br2030   1.934       .  S
C2019      C2020   1.411       .  A
C2019     Br2034   1.929       .  S
C2020      C2023   1.496       .  S
C2020      C2021   1.411       .  A
C2021      C2022   1.412       .  A
C2021     Br2029   1.929       .  S
C2022     Br2033   1.928       .  S
C2023      C2024   1.398       .  A
C2023      C2028   1.395       .  A
C2024      C2025   1.420       .  A
C2024     Br2035   1.938       .  S
C2025      C2026   1.458       .  A
C2025     Br2031   1.941       .  S
C2026      C2027   1.452       .  A
C2027      C2028   1.412       .  A
C2027     Br2036   1.919       .  S
C2028     Br2032   1.944       .  S
C2037      C2038   1.456       .  A
C2037      C2042   1.451       .  A
C2038      C2039   1.402       .  A
C2038     Br2050   1.941       .  S
C2039      C2040   1.391       .  A
C2039     Br2054   1.941       .  S
C2040      C2043   1.490       .  S
C2040      C2041   1.399       .  A
C2041      C2042   1.423       .  A
C2041     Br2049   1.935       .  S
C2042     Br2053   1.940       .  S
C2043      C2044   1.392       .  A
C2043      C2048   1.389       .  A
C2044      C2045   1.414       .  A
C2044     Br2055   1.942       .  S
C2045      C2046   1.450       .  A
C2045     Br2051   1.911       .  S
C2046      C2047   1.459       .  A
C2047      C2048   1.417       .  A
C2047     Br2056   1.903       .  S
C2048     Br2052   1.946       .  S
C2057      C2058   1.453       .  A
C2057      C2062   1.452       .  A
C2058      C2059   1.409       .  A
C2058     Br2070   1.926       .  S
C2059      C2060   1.390       .  A
C2059     Br2074   1.941       .  S
C2060      C2063   1.484       .  S
C2060      C2061   1.398       .  A
C2061      C2062   1.417       .  A
C2061     Br2069   1.944       .  S
C2062     Br2073   1.929       .  S
C2063      C2064   1.409       .  A
C2063      C2068   1.411       .  A
C2064      C2065   1.407       .  A
C2064     Br2075   1.928       .  S
C2065      C2066   1.408       .  A
C2065     Br2071   1.928       .  S
C2066      C2067   1.408       .  A
C2067      C2068   1.402       .  A
C2067     Br2076   1.934       .  S
C2068     Br2072   1.928       .  S
C2077      C2078   1.443       .  A
C2077      C2082   1.454       .  A
C2078      C2079   1.401       .  A
C2078     Br2090   1.916       .  S
C2079      C2080   1.395       .  A
C2079     Br2094   1.945       .  S
C2080      C2083   1.493       .  S
C2080      C2081   1.403       .  A
C2081      C2082   1.424       .  A
C2081     Br2089   1.938       .  S
C2082     Br2093   1.945       .  S
C2083      C2084   1.393       .  A
C2083      C2088   1.395       .  A
C2084      C2085   1.417       .  A
C2084     Br2095   1.940       .  S
C2085      C2086   1.456       .  A
C2085     Br2091   1.941       .  S
C2086      C2087   1.465       .  A
C2087      C2088   1.415       .  A
C2087     Br2096   1.951       .  S
C2088     Br2092   1.947       .  S
C2097      C2098   1.446       .  A
C2097      C2102   1.466       .  A
C2098      C2099   1.397       .  A
C2098     Br2110   1.938       .  S
C2099      C2100   1.391       .  A
C2099     Br2114   1.925       .  S
C2100      C2103   1.491       .  S
C2100      C2101   1.396       .  A
C2101      C2102   1.418       .  A
C2101     Br2109   1.937       .  S
C2102     Br2113   1.934       .  S
C2103      C2104   1.398       .  A
C2103      C2108   1.397       .  A
C2104      C2105   1.423       .  A
C2104     Br2115   1.938       .  S
C2105      C2106   1.458       .  A
C2105     Br2111   1.944       .  S
C2106      C2107   1.456       .  A
C2107      C2108   1.407       .  A
C2107     Br2116   1.948       .  S
C2108     Br2112   1.942       .  S
C2117      C2118   1.448       .  A
C2117      C2122   1.439       .  A
C2118      C2119   1.416       .  A
C2118     Br2130   1.926       .  S
C2119      C2120   1.397       .  A
C2119     Br2134   1.940       .  S
C2120      C2123   1.496       .  S
C2120      C2121   1.399       .  A
C2121      C2122   1.420       .  A
C2121     Br2129   1.934       .  S
C2122     Br2133   1.913       .  S
C2123      C2124   1.411       .  A
C2123      C2128   1.411       .  A
C2124      C2125   1.412       .  A
C2124     Br2135   1.929       .  S
C2125      C2126   1.411       .  A
C2125     Br2131   1.929       .  S
C2126      C2127   1.411       .  A
C2127      C2128   1.406       .  A
C2127     Br2136   1.937       .  S
C2128     Br2132   1.919       .  S
C2137      C2138   1.450       .  A
C2137      C2142   1.449       .  A
C2138      C2139   1.412       .  A
C2138     Br2150   1.915       .  S
C2139      C2140   1.395       .  A
C2139     Br2154   1.938       .  S
C2140      C2143   1.497       .  S
C2140      C2141   1.403       .  A
C2141      C2142   1.416       .  A
C2141     Br2149   1.938       .  S
C2142     Br2153   1.934       .  S
C2143      C2144   1.404       .  A
C2143      C2148   1.393       .  A
C2144      C2145   1.423       .  A
C2144     Br2155   1.941       .  S
C2145      C2146   1.447       .  A
C2145     Br2151   1.922       .  S
C2146      C2147   1.452       .  A
C2147      C2148   1.403       .  A
C2147     Br2156   1.938       .  S
C2148     Br2152   1.935       .  S
C2157      C2158   1.455       .  A
C2157      C2162   1.449       .  A
C2158      C2159   1.410       .  A
C2158     Br2170   1.957       .  S
C2159      C2160   1.398       .  A
C2159     Br2174   1.927       .  S
C2160      C2163   1.513       .  S
C2160      C2161   1.409       .  A
C2161      C2162   1.429       .  A
C2161     Br2169   1.936       .  S
C2162     Br2173   1.934       .  S
C2163      C2164   1.401       .  A
C2163      C2168   1.404       .  A
C2164      C2165   1.422       .  A
C2164     Br2175   1.935       .  S
C2165      C2166   1.452       .  A
C2165     Br2171   1.927       .  S
C2166      C2167   1.442       .  A
C2167      C2168   1.417       .  A
C2167     Br2176   1.916       .  S
C2168     Br2172   1.927       .  S
C2177      C2178   1.457       .  A
C2177      C2182   1.447       .  A
C2178      C2179   1.421       .  A
C2178     Br2190   1.939       .  S
C2179      C2180   1.399       .  A
C2179     Br2194   1.940       .  S
C2180      C2183   1.495       .  S
C2180      C2181   1.401       .  A
C2181      C2182   1.413       .  A
C2181     Br2189   1.944       .  S
C2182     Br2193   1.922       .  S
C2183      C2184   1.410       .  A
C2183      C2188   1.409       .  A
C2184      C2185   1.408       .  A
C2184     Br2195   1.929       .  S
C2185      C2186   1.417       .  A
C2185     Br2191   1.935       .  S
C2186      C2187   1.414       .  A
C2187      C2188   1.410       .  A
C2187     Br2196   1.929       .  S
C2188     Br2192   1.929       .  S
C2197      C2198   1.463       .  A
C2197      C2202   1.450       .  A
C2198      C2199   1.418       .  A
C2198     Br2210   1.931       .  S
C2199      C2200   1.393       .  A
C2199     Br2214   1.951       .  S
C2200      C2203   1.494       .  S
C2200      C2201   1.399       .  A
C2201      C2202   1.412       .  A
C2201     Br2209   1.938       .  S
C2202     Br2213   1.932       .  S
C2203      C2204   1.395       .  A
C2203      C2208   1.403       .  A
C2204      C2205   1.413       .  A
C2204     Br2215   1.944       .  S
C2205      C2206   1.460       .  A
C2205     Br2211   1.944       .  S
C2206      C2207   1.443       .  A
C2207      C2208   1.417       .  A
C2207     Br2216   1.924       .  S
C2208     Br2212   1.943       .  S
C2217      C2218   1.449       .  A
C2217      C2222   1.438       .  A
C2218      C2219   1.424       .  A
C2218     Br2230   1.920       .  S
C2219      C2220   1.403       .  A
C2219     Br2234   1.942       .  S
C2220      C2223   1.499       .  S
C2220      C2221   1.402       .  A
C2221      C2222   1.406       .  A
C2221     Br2229   1.932       .  S
C2222     Br2233   1.922       .  S
C2223      C2224   1.399       .  A
C2223      C2228   1.407       .  A
C2224      C2225   1.402       .  A
C2224     Br2235   1.934       .  S
C2225      C2226   1.444       .  A
C2225     Br2231   1.930       .  S
C2226      C2227   1.453       .  A
C2227      C2228   1.421       .  A
C2227     Br2236   1.949       .  S
C2228     Br2232   1.938       .  S
C2237      C2238   1.447       .  A
C2237      C2242   1.450       .  A
C2238      C2239   1.424       .  A
C2238     Br2250   1.945       .  S
C2239      C2240   1.405       .  A
C2239     Br2254   1.936       .  S
C2240      C2243   1.497       .  S
C2240      C2241   1.395       .  A
C2241      C2242   1.409       .  A
C2241     Br2249   1.933       .  S
C2242     Br2253   1.946       .  S
C2243      C2244   1.401       .  A
C2243      C2248   1.406       .  A
C2244      C2245   1.402       .  A
C2244     Br2255   1.929       .  S
C2245      C2246   1.418       .  A
C2245     Br2251   1.920       .  S
C2246      C2247   1.458       .  A
C2247      C2248   1.423       .  A
C2247     Br2256   1.949       .  S
C2248     Br2252   1.933       .  S
