geometry optimzed in LAMMPS
_audit_creation_date              2020-11-30 
_audit_creation_method            'lammps2cif' 
_symmetry_space_group_name_H-M    'P1' 
_symmetry_Int_Tables_number       1 
_symmetry_cell_setting            triclinic 
loop_ 
_symmetry_equiv_pos_as_xyz 
  x,y,z 
_cell_length_a                    41.38843718 
_cell_length_b                    41.133938170019725 
_cell_length_c                    41.12251097974636 
_cell_angle_alpha                 90.15581020391144 
_cell_angle_beta                  89.96078121526921 
_cell_angle_gamma                 90.3390295438078 
loop_ 
_atom_site_label 
_atom_site_type_symbol 
_atom_site_fract_x 
_atom_site_fract_y 
_atom_site_fract_z 
_atom_site_charge 
C1          C  0.17501725  0.17790301  0.18526163     0.87000
C2          C  0.16685548  0.17571552  0.22155649    -0.53200
C3          C  0.18632322  0.19417300  0.24113919     0.10000
C4          C  0.21263013  0.21314567  0.22251204     0.20900
C5          C  0.17449344  0.21444411  0.17761484    -0.53900
C6          C  0.19439447  0.23301578  0.19663460     0.10100
C7          C  0.21111049  0.16944146  0.18268028    -0.53500
C8          C  0.23084476  0.18701836  0.20288057     0.10600
H9          H  0.14700573  0.16107977  0.23089920     0.15200
H10         H  0.22828442  0.22806791  0.23852658     0.00900
H11         H  0.16126385  0.22502279  0.15763473     0.15500
H12         H  0.22016242  0.15145290  0.16570762     0.15200
C13         C  0.09583404  0.09387458  0.09930889     0.87000
C14         C  0.06022867  0.09251738  0.10931083    -0.53200
C15         C  0.04105539  0.07486795  0.08887661     0.10000
C16         C  0.05927052  0.05993517  0.05985253     0.20900
C17         C  0.10567798  0.05792446  0.09597890    -0.53900
C18         C  0.08662743  0.04001225  0.07549283     0.10100
C19         C  0.09580270  0.10628365  0.06388118    -0.53500
C20         C  0.07657657  0.08879061  0.04298384     0.10600
H21         H  0.05101920  0.10423872  0.13111327     0.15200
H22         H  0.04327794  0.04569515  0.04357090     0.00900
H23         H  0.12604305  0.04698906  0.10807037     0.15500
H24         H  0.11024710  0.12692248  0.05602159     0.15200
C25         C  0.92391692  0.60307045  0.42207493     0.87000
C26         C  0.95894965  0.59975665  0.40942437    -0.53200
C27         C  0.97808121  0.58028957  0.42817012     0.10000
C28         C  0.96069753  0.56711703  0.45854992     0.20900
C29         C  0.91170448  0.56790108  0.42618368    -0.53900
C30         C  0.93084267  0.54910487  0.44542592     0.10100
C31         C  0.92852156  0.61615418  0.45702813    -0.53500
C32         C  0.94746211  0.59717240  0.47615927     0.10600
H33         H  0.96761696  0.61113982  0.38728299     0.15200
H34         H  0.97624599  0.55199586  0.47426684     0.00900
H35         H  0.88966750  0.55879169  0.41498898     0.15500
H36         H  0.91964245  0.63934038  0.46562373     0.15200
C37         C  0.84091866  0.68310537  0.33754852     0.87000
C38         C  0.85211214  0.68587533  0.30181704    -0.53200
C39         C  0.83308870  0.70525941  0.28311753     0.10000
C40         C  0.80461872  0.72028202  0.30160357     0.20900
C41         C  0.83955691  0.71876345  0.34899133    -0.53900
C42         C  0.82023813  0.73827932  0.33061993     0.10100
C43         C  0.80550506  0.67195655  0.33566721    -0.53500
C44         C  0.78654647  0.69106485  0.31656245     0.10600
H45         H  0.87413688  0.67542010  0.29223314     0.15200
H46         H  0.78928386  0.73590492  0.28606632     0.00900
H47         H  0.85217985  0.72749025  0.37036382     0.15500
H48         H  0.79650108  0.65015413  0.34754713     0.15200
C49         C  0.59138169  0.42897959  0.93020954     0.87000
C50         C  0.55545027  0.43109834  0.92034322    -0.53200
C51         C  0.53710872  0.44963476  0.94064244     0.10000
C52         C  0.55638867  0.46513213  0.96866737     0.20900
C53         C  0.60227279  0.46469698  0.93181048    -0.53900
C54         C  0.58441861  0.48365331  0.95214393     0.10100
C55         C  0.59079758  0.41739509  0.96578257    -0.53500
C56         C  0.57226298  0.43615287  0.98585488     0.10600
H57         H  0.54513298  0.42075531  0.89846957     0.15200
H58         H  0.54147677  0.48044143  0.98506343    -0.07100
H59         H  0.62315269  0.47389714  0.91873518     0.15500
H60         H  0.60266876  0.39539074  0.97389557     0.15200
C61         C  0.67736488  0.35553778  0.84280604     0.87000
C62         C  0.66647340  0.35254206  0.80703730    -0.53200
C63         C  0.68582848  0.33310825  0.78849178     0.10000
C64         C  0.71466777  0.31905039  0.80731008     0.20900
C65         C  0.68035786  0.32050956  0.85508844    -0.53900
C66         C  0.69988965  0.30140422  0.83666063     0.10100
C67         C  0.71251612  0.36823983  0.83996756    -0.53500
C68         C  0.73213584  0.34892686  0.82155209     0.10600
H69         H  0.64519989  0.36434902  0.79735501     0.15200
H70         H  0.73054079  0.30322035  0.79244519     0.00900
H71         H  0.66896944  0.31204397  0.87733393     0.15500
H72         H  0.72073543  0.39134825  0.84969478     0.15200
C73         C  0.44218255  0.92417427  0.59965416     0.87000
C74         C  0.47761875  0.92464096  0.61056956    -0.53200
C75         C  0.49752848  0.94448541  0.59272502     0.10000
C76         C  0.47959867  0.96111221  0.56417249     0.20900
C77         C  0.43200362  0.96024109  0.59871568    -0.53900
C78         C  0.45149580  0.97954204  0.58014461     0.10100
C79         C  0.44319226  0.91446045  0.56353817    -0.53500
C80         C  0.46293062  0.93344020  0.54491913     0.10600
H81         H  0.48586041  0.90974616  0.63055201     0.15200
H82         H  0.49483079  0.97718517  0.54885291     0.00900
H83         H  0.40976510  0.96949739  0.60897082     0.15500
H84         H  0.42964714  0.89408376  0.55357760     0.15200
C85         C  0.35643310  0.83780971  0.67585881     0.87000
C86         C  0.36655769  0.83580299  0.71169760    -0.53200
C87         C  0.34619789  0.81785689  0.73068499     0.10000
C88         C  0.31732286  0.80339972  0.71187646     0.20900
C89         C  0.35290381  0.80199306  0.66483595    -0.53900
C90         C  0.33256067  0.78389378  0.68383654     0.10100
C91         C  0.32132118  0.85022654  0.67636912    -0.53500
C92         C  0.30085116  0.83258215  0.69560623     0.10600
H93         H  0.38881961  0.84658434  0.72069792     0.15200
H94         H  0.30060817  0.78883618  0.72718022     0.00900
H95         H  0.36365832  0.79192358  0.64306160     0.15500
H96         H  0.31372151  0.87184891  0.66352205     0.15200
O97         O  0.46833954  0.42438434  0.16612043    -0.57300
C98         C  0.53745229  0.40678387  0.11919898     0.75400
O99         O  0.56039054  0.42995850  0.21158843    -0.58400
C100        C  0.44833752  0.40986781  0.18436349     0.75300
C101        C  0.51638387  0.32735688  0.19864799     0.77700
Cd102      Cd  0.51596629  0.39689097  0.18550700     1.37500
O103        O  0.50832830  0.40790563  0.12816461    -0.57300
O104        O  0.50845139  0.33945695  0.17171406    -0.56100
C105        C  0.54153657  0.44892623  0.22672637     0.77700
O106        O  0.52690329  0.34738339  0.21970799    -0.58400
O107        O  0.55790850  0.40094991  0.14138419    -0.56900
O108        O  0.45996843  0.39022077  0.20488339    -0.56900
O109        O  0.51183953  0.44199112  0.22476907    -0.56100
O110        O  0.23592439  0.38517993  0.18109709    -0.57300
C111        C  0.31280363  0.42412557  0.15721815     0.75400
O112        O  0.23355969  0.45726930  0.08881493    -0.58400
C113        C  0.21951386  0.36736529  0.16222378     0.75300
C114        C  0.22080241  0.47648549  0.18816421     0.77700
Cd115      Cd  0.24588889  0.42906576  0.14194178     1.37500
O116        O  0.29378469  0.40020993  0.16046403    -0.57300
O117        O  0.25038510  0.47427016  0.18100268    -0.56100
C118        C  0.24920132  0.43762516  0.07094668     0.77700
O119        O  0.20166242  0.45949239  0.17083622    -0.58400
O120        O  0.30073813  0.45017383  0.14650874    -0.56900
O121        O  0.21264061  0.37937938  0.13473199    -0.56900
O122        O  0.26117968  0.41356093  0.08549533    -0.56100
O123        O  0.11841821  0.51444850  0.40220085    -0.57300
C124        C  0.17293653  0.45122334  0.40035941     0.75400
O125        O  0.20577836  0.53437812  0.33596832    -0.58400
C126        C  0.11061811  0.54391478  0.39926147     0.75300
C127        C  0.21877705  0.53732388  0.44018596     0.77700
Cd128      Cd  0.17491321  0.51893249  0.38708007     1.37500
O129        O  0.15341939  0.47100050  0.41331595    -0.57300
O130        O  0.21552754  0.50857533  0.42995476    -0.56100
C131        C  0.18646372  0.51986328  0.31673481     0.77700
O132        O  0.20409896  0.55880632  0.42382645    -0.58400
O133        O  0.19335628  0.46298128  0.38058317    -0.56900
O134        O  0.13311229  0.56317762  0.39072418    -0.56900
O135        O  0.16199060  0.50713049  0.32994352    -0.56100
O136        O  0.18327490  0.23785227  0.39140738    -0.57300
C137        C  0.16392007  0.31510472  0.43119029     0.75400
O138        O  0.09490862  0.23763090  0.46653621    -0.58400
C139        C  0.16347706  0.21903527  0.37734840     0.75300
C140        C  0.19814888  0.22319636  0.48530871     0.77700
Cd141      Cd  0.14993712  0.24812091  0.43971524     1.37500
O142        O  0.17198967  0.29416389  0.41016710    -0.57300
O143        O  0.18972945  0.25268457  0.48506196    -0.56100
C144        C  0.07966490  0.25633899  0.44737094     0.77700
O145        O  0.18103656  0.20422374  0.46794716    -0.58400
O146        O  0.15140584  0.30454027  0.45722717    -0.56900
O147        O  0.13820388  0.21150273  0.39314528    -0.56900
O148        O  0.09644695  0.26880525  0.42498899    -0.56100
O149        O  0.41032614  0.11963547  0.51736290    -0.57300
C150        C  0.41203978  0.17877532  0.45963521     0.75400
O151        O  0.34612802  0.20731416  0.54295636    -0.58400
C152        C  0.41329590  0.11092131  0.54661917     0.75300
C153        C  0.45134921  0.21720466  0.55078533     0.77700
Cd154      Cd  0.39775645  0.17677192  0.52720009     1.37500
O155        O  0.39535601  0.20097056  0.47274772    -0.57300
O156        O  0.43955095  0.21952738  0.52258388    -0.56100
C157        C  0.32732373  0.18828298  0.52748840     0.77700
O158        O  0.43593443  0.19871918  0.57007526    -0.58400
O159        O  0.42271090  0.15687127  0.47817882    -0.56900
O160        O  0.40746526  0.13258752  0.56786415    -0.56900
O161        O  0.34075203  0.16369764  0.51523553    -0.56100
O162        O  0.37913696  0.17896310  0.25057621    -0.57300
C163        C  0.42411252  0.16120670  0.32151875     0.75400
O164        O  0.45818753  0.09552043  0.24030972    -0.58400
C165        C  0.36597748  0.16292318  0.22791895     0.75300
C166        C  0.47225648  0.19778295  0.23012081     0.77700
Cd167      Cd  0.42843788  0.14763933  0.25357740     1.37500
O168        O  0.40244302  0.17006848  0.30187713    -0.57300
O169        O  0.47340211  0.18638653  0.25855134    -0.56100
C170        C  0.43823727  0.07726449  0.25520656     0.77700
O171        O  0.45375332  0.18281873  0.21048474    -0.58400
O172        O  0.44770101  0.14581221  0.30952071    -0.56900
O173        O  0.38234523  0.13992876  0.21570001    -0.56900
O174        O  0.41366370  0.09134455  0.26655575    -0.56100
O175        O  0.81496519  0.08355250  0.88622040    -0.57300
C176        C  0.73765850  0.17043557  0.87109324     0.75400
O177        O  0.71713289  0.07968396  0.84965989    -0.58400
C178        C  0.82707120  0.10487710  0.86762364     0.75300
C179        C  0.76100823  0.09414453  0.95500452     0.77700
Cd180      Cd  0.76030279  0.10553577  0.88466761     1.37500
O181        O  0.76700226  0.16226269  0.87053560    -0.57300
O182        O  0.77093490  0.12015001  0.94214955    -0.56100
C183        C  0.73646468  0.06192413  0.83364700     0.77700
O184        O  0.74804479  0.07388352  0.93562844    -0.58400
O185        O  0.71761398  0.14818129  0.87857493    -0.56900
O186        O  0.80804816  0.12633672  0.85699775    -0.56900
O187        O  0.76538521  0.06238466  0.84332364    -0.56100
O188        O  0.98264002  0.10887669  0.86438632    -0.57300
C189        C  0.05394804  0.12118675  0.90659500     0.75400
O190        O  0.07531390  0.10202747  0.81302905    -0.58400
C191        C  0.96304951  0.11827364  0.84285585     0.75300
C192        C  0.02180277  0.20379602  0.82547724     0.77700
Cd193      Cd  0.03020297  0.13383956  0.84028525     1.37500
O194        O  0.03468760  0.10279925  0.89129947    -0.57300
O195        O  0.01151330  0.19032946  0.85108456    -0.56100
C196        C  0.05683063  0.08407371  0.79593572     0.77700
O197        O  0.03904291  0.18581608  0.80730691    -0.58400
O198        O  0.06408020  0.14586119  0.89100638    -0.56900
O199        O  0.97489992  0.13411170  0.81936506    -0.56900
O200        O  0.02729454  0.09148460  0.79679896    -0.56100
O201        O  0.91155267  0.40283788  0.50242594    -0.57300
C202        C  0.91290155  0.34851222  0.56165464     0.75400
O203        O  0.84814304  0.31144341  0.48227190    -0.58400
C204        C  0.90687466  0.41285948  0.47381064     0.75300
C205        C  0.94954056  0.30533059  0.46869874     0.77700
Cd206      Cd  0.89744114  0.34613334  0.49406418     1.37500
O207        O  0.89087241  0.32994876  0.55092565    -0.57300
O208        O  0.93777375  0.32840445  0.45221263    -0.56100
C209        C  0.82811208  0.33092527  0.49507365     0.77700
O210        O  0.93453817  0.29857727  0.49462677    -0.58400
O211        O  0.92866686  0.36450493  0.54073138    -0.56900
O212        O  0.89726143  0.39165182  0.45339694    -0.56900
O213        O  0.83962615  0.35809048  0.50366654    -0.56100
O214        O  0.90866681  0.36242739  0.71810279    -0.57300
C215        C  0.86642276  0.37402155  0.78847257     0.75400
O216        O  0.97277373  0.34193953  0.76227507    -0.58400
C217        C  0.92992396  0.37278695  0.69856398     0.75300
C218        C  0.94360963  0.45652385  0.76554947     0.77700
Cd219      Cd  0.93182151  0.38595185  0.76672161     1.37500
O220        O  0.87658119  0.36819990  0.76012747    -0.57300
O221        O  0.91731958  0.44329993  0.75726186    -0.56100
C222        C  0.97176360  0.33216315  0.79136046     0.77700
O223        O  0.96435818  0.43745667  0.77771101    -0.58400
O224        O  0.88716897  0.38530920  0.80834480    -0.56900
O225        O  0.95292489  0.38925621  0.71071231    -0.56900
O226        O  0.95482999  0.34940492  0.81042416    -0.56100
O227        O  0.22325207  0.61590760  0.64422559    -0.57300
C228        C  0.29531618  0.65103920  0.65203701     0.75400
O229        O  0.31453573  0.55856861  0.67130922    -0.58400
C230        C  0.20423157  0.59190262  0.64614960     0.75300
C231        C  0.27146580  0.56889896  0.56731480     0.77700
Cd232      Cd  0.27212183  0.58616589  0.63659545     1.37500
O233        O  0.26628597  0.64190247  0.65475838    -0.57300
O234        O  0.27322702  0.59784795  0.57739628    -0.56100
C235        C  0.29455331  0.54788004  0.69222776     0.77700
O236        O  0.27433902  0.54732733  0.58903348    -0.58400
O237        O  0.31494329  0.62976086  0.64155114    -0.56900
O238        O  0.21651880  0.56401006  0.64234389    -0.56900
O239        O  0.26520035  0.55355050  0.68631182    -0.56100
O240        O  0.01008627  0.61645359  0.62038222    -0.57300
C241        C  0.06963831  0.61419686  0.67133412     0.75400
O242        O  0.99500130  0.68769326  0.70658762    -0.58400
C243        C  0.98258334  0.62425425  0.60998383     0.75300
C244        C  0.97837490  0.58508215  0.71928376     0.77700
Cd245      Cd  0.00450824  0.63458630  0.67572672     1.37500
O246        O  0.04781227  0.60094552  0.65430542    -0.57300
O247        O  0.00708572  0.59547974  0.72106662    -0.56100
C248        C  0.01152467  0.70495070  0.68704735     0.77700
O249        O  0.96011771  0.60039437  0.69991341    -0.58400
O250        O  0.06081512  0.63564384  0.69161441    -0.56900
O251        O  0.96366196  0.63715062  0.63061104    -0.56900
O252        O  0.02226449  0.69006930  0.66252732    -0.56100
O253        O  0.15669211  0.86461111  0.75369118    -0.57300
C254        C  0.10065000  0.87087434  0.81171860     0.75400
O255        O  0.07070287  0.93734000  0.73382369    -0.58400
C256        C  0.16849525  0.86979112  0.72585459     0.75300
C257        C  0.05996630  0.83413220  0.71856721     0.77700
Cd258      Cd  0.10242569  0.88528806  0.74427674     1.37500
O259        O  0.11999784  0.85708216  0.79241930    -0.57300
O260        O  0.07984952  0.84896069  0.70025696    -0.56100
C261        C  0.09151699  0.95596629  0.74698561     0.77700
O262        O  0.05735627  0.84548545  0.74698045    -0.58400
O263        O  0.08134719  0.89125679  0.79957668    -0.56900
O264        O  0.14961515  0.88297846  0.70544213    -0.56900
O265        O  0.11770049  0.94246029  0.75473898    -0.56100
O266        O  0.14225924  0.89195034  0.04952087    -0.57300
C267        C  0.11602864  0.85123724  0.94882239     0.75400
O268        O  0.18073230  0.81199230  0.02907237    -0.58400
C269        C  0.11526041  0.90550560  0.04466885     0.75300
C270        C  0.08189472  0.79612329  0.03838639     0.77700
Cd271      Cd  0.12979536  0.84294123  0.01587075     1.37500
O272        O  0.10888152  0.87265043  0.96964703    -0.57300
O273        O  0.10006262  0.81105101  0.05841162    -0.56100
C274        C  0.19893740  0.82947534  0.01128747     0.77700
O275        O  0.08856381  0.80023718  0.00869617    -0.58400
O276        O  0.12940155  0.82577742  0.95937252    -0.56900
O277        O  0.09473077  0.88912984  0.02881140    -0.56900
O278        O  0.18547154  0.85347117  0.99799789    -0.56100
O279        O  0.35584343  0.54004954  0.92293062    -0.57300
C280        C  0.40365101  0.47574190  0.90765399     0.75400
O281        O  0.31194576  0.44902164  0.92455811    -0.58400
C282        C  0.33777873  0.56050419  0.90925024     0.75300
C283        C  0.32766941  0.49794662  0.82025758     0.77700
Cd284      Cd  0.33831430  0.49382803  0.89101289     1.37500
O285        O  0.39358796  0.50459283  0.90655876    -0.57300
O286        O  0.35474328  0.50321229  0.83343170    -0.56100
C287        C  0.29510381  0.46864406  0.94132826     0.77700
O288        O  0.30600803  0.48684807  0.83912719    -0.58400
O289        O  0.38338572  0.45380908  0.89953725    -0.56900
O290        O  0.31903385  0.54973842  0.88734362    -0.56900
O291        O  0.29572979  0.49779683  0.93191731    -0.56100
O292        O  0.35028299  0.71743076  0.90840555    -0.57300
C293        C  0.36871992  0.78470865  0.86567518     0.75400
O294        O  0.34420580  0.80827500  0.95154220    -0.58400
C295        C  0.35883555  0.69697211  0.92952437     0.75300
C296        C  0.44905242  0.75954038  0.94157088     0.77700
Cd297      Cd  0.37895430  0.76307721  0.93122591     1.37500
O298        O  0.38176012  0.80383846  0.88616278    -0.57300
O299        O  0.43432245  0.74535317  0.91871847    -0.56100
C300        C  0.32773541  0.79096430  0.97098865     0.77700
O301        O  0.43151828  0.77684627  0.96005726    -0.58400
O302        O  0.36072649  0.75702408  0.87614059    -0.56900
O303        O  0.37645617  0.70750477  0.95253623    -0.56900
O304        O  0.33777746  0.76232506  0.97507367    -0.56100
O305        O  0.60349949  0.67949013  0.21985154    -0.57300
C306        C  0.65283437  0.66044459  0.28679800     0.75400
O307        O  0.54175523  0.68757500  0.26674464    -0.58400
C308        C  0.58346348  0.66681571  0.20033280     0.75300
C309        C  0.57520852  0.57844730  0.26890239     0.77700
Cd310      Cd  0.58692099  0.64851872  0.26707334     1.37500
O311        O  0.64361702  0.66094891  0.25749348    -0.57300
O312        O  0.60133093  0.59087419  0.25894452    -0.56100
C313        C  0.54648652  0.69907294  0.29485549     0.77700
O314        O  0.55486353  0.59831513  0.28043876    -0.58400
O315        O  0.63123574  0.65404699  0.30779682    -0.56900
O316        O  0.56461707  0.64538237  0.21185097    -0.56900
O317        O  0.56759984  0.68464115  0.31173596    -0.56100
O318        O  0.61986688  0.62695715  0.01198069    -0.57300
C319        C  0.60464749  0.68561983  0.06477922     0.75400
O320        O  0.68605900  0.70777858  0.98480146    -0.58400
C321        C  0.62077625  0.61662674  0.98309767     0.75300
C322        C  0.58087588  0.72370691  0.97233550     0.77700
Cd323      Cd  0.63126632  0.68370307  0.00124738     1.37500
O324        O  0.59744176  0.66352293  0.04458480    -0.57300
O325        O  0.59496421  0.70177385  0.95596172    -0.56100
C326        C  0.70151358  0.69431193  0.00775049     0.77700
O327        O  0.59347879  0.73026492  0.99956994    -0.58400
O328        O  0.62371028  0.70778363  0.05495976    -0.56900
O329        O  0.62826796  0.63744019  0.96156405    -0.56900
O330        O  0.68472469  0.67672709  0.02633573    -0.56100
O331        O  0.66734014  0.26800615  0.64506367    -0.57300
C332        C  0.66728065  0.20537165  0.59371120     0.75400
O333        O  0.59902364  0.27660826  0.55695094    -0.58400
C334        C  0.66223830  0.29681053  0.65415071     0.75300
C335        C  0.70179700  0.29607507  0.54608888     0.77700
Cd336      Cd  0.65073437  0.27223248  0.58952084     1.37500
O337        O  0.67969568  0.22666375  0.61217214    -0.57300
O338        O  0.69485083  0.26642747  0.54994343    -0.56100
C339        C  0.58080612  0.26577806  0.57936462     0.77700
O340        O  0.68289386  0.31598063  0.55999956    -0.58400
O341        O  0.64758323  0.21535154  0.57243529    -0.56900
O342        O  0.65173148  0.31604658  0.63251074    -0.56900
O343        O  0.59441917  0.26127135  0.60638584    -0.56100
O344        O  0.66710469  0.05035356  0.61583406    -0.57300
C345        C  0.63183550  0.97564161  0.62163575     0.75400
O346        O  0.72007009  0.95827962  0.60279604    -0.58400
C347        C  0.68987397  0.07035881  0.62076191     0.75300
C348        C  0.70740927  0.00802821  0.70636318     0.77700
Cd349      Cd  0.69471835  0.00292259  0.63622084     1.37500
O350        O  0.64333563  0.00046433  0.60771853    -0.57300
O351        O  0.68028566  0.01357446  0.69354032    -0.56100
C352        C  0.73511294  0.97758346  0.58401491     0.77700
O353        O  0.72879097  0.99699455  0.68719053    -0.58400
O354        O  0.64968297  0.96226826  0.64279378    -0.56900
O355        O  0.71525558  0.05919139  0.63362839    -0.56900
O356        O  0.73482402  0.00713177  0.59235745    -0.56100
O357        O  0.87157304  0.76628676  0.14131821    -0.57300
C358        C  0.86836330  0.82154512  0.08419492     0.75400
O359        O  0.93302877  0.74474512  0.04863397    -0.58400
C360        C  0.87079669  0.73731498  0.15141851     0.75300
C361        C  0.83338193  0.72481692  0.04555516     0.77700
Cd362      Cd  0.88456820  0.75392525  0.08471237     1.37500
O363        O  0.89437890  0.81151358  0.07155994    -0.57300
O364        O  0.84762589  0.70883723  0.06757049    -0.56100
C365        C  0.95403183  0.74999801  0.07049651     0.77700
O366        O  0.84590627  0.75205972  0.03869359    -0.58400
O367        O  0.84976509  0.80008435  0.09575854    -0.56900
O368        O  0.87811927  0.71553708  0.13079365    -0.56900
O369        O  0.94297514  0.75372490  0.09890630    -0.56100
O370        O  0.86996964  0.97791552  0.10612984    -0.57300
C371        C  0.90695919  0.04806594  0.11743838     0.75400
O372        O  0.82143267  0.07142421  0.09989442    -0.58400
C373        C  0.84781220  0.95724360  0.11058740     0.75300
C374        C  0.83151147  0.02103318  0.20099022     0.77700
Cd375      Cd  0.84303536  0.02382762  0.13068075     1.37500
O376        O  0.88915128  0.03612934  0.09549072    -0.57300
O377        O  0.85458875  0.00700237  0.18674801    -0.56100
C378        C  0.80116591  0.05478606  0.08362488     0.77700
O379        O  0.81338440  0.03798368  0.18285191    -0.58400
O380        O  0.89438083  0.05112847  0.14536887    -0.56900
O381        O  0.82263269  0.96737366  0.12480087    -0.56900
O382        O  0.79737289  0.02564541  0.09264022    -0.56100
O383        O  0.54870563  0.92942649  0.35847306    -0.57300
C384        C  0.48568677  0.90974584  0.40746640     0.75400
O385        O  0.50066377  0.93700671  0.29333240    -0.58400
C386        C  0.56862789  0.91893803  0.33770524     0.75300
C387        C  0.50397585  0.82861861  0.32781562     0.77700
Cd388      Cd  0.50237215  0.89888635  0.33980374     1.37500
O389        O  0.51334139  0.91461722  0.39547388    -0.57300
O390        O  0.51767820  0.84242385  0.35153076    -0.56100
C391        C  0.47299686  0.94857692  0.29885900     0.77700
O392        O  0.48717645  0.84700105  0.30989580    -0.58400
O393        O  0.46417130  0.89969936  0.38775576    -0.56900
O394        O  0.55749820  0.89961997  0.31636280    -0.56900
O395        O  0.45711740  0.93475314  0.32135979    -0.56100
O396        O  0.76045310  0.88153791  0.36438023    -0.57300
C397        C  0.70407950  0.93953360  0.36095292     0.75400
O398        O  0.78476999  0.96782781  0.43183542    -0.58400
C399        C  0.78911284  0.87138517  0.36610655     0.75300
C400        C  0.79846241  0.98009416  0.33129583     0.77700
Cd401      Cd  0.77045212  0.93743032  0.38032750     1.37500
O402        O  0.72481923  0.92338228  0.34527929    -0.57300
O403        O  0.77118178  0.98528718  0.34403054    -0.56100
C404        C  0.77097338  0.94797886  0.45098078     0.77700
O405        O  0.81496952  0.95780346  0.34439458    -0.58400
O406        O  0.71443343  0.95557143  0.38515910    -0.56900
O407        O  0.81009006  0.89188409  0.37577519    -0.56900
O408        O  0.75918777  0.92289365  0.43767289    -0.56100
C409        C  0.60318087  0.92791433  0.33983412    -0.04900
C410        C  0.61327306  0.94830056  0.36538898    -0.32300
C411        C  0.64599134  0.95363269  0.37160196     0.36900
C412        C  0.66949407  0.93841584  0.35211655    -0.05300
C413        C  0.65945188  0.91970861  0.32523652    -0.32200
C414        C  0.62659927  0.91445906  0.31894914     0.36800
H415        H  0.59576424  0.95921124  0.38162787     0.17200
O416        O  0.65455835  0.97218124  0.39802050    -0.59700
H417        H  0.67708792  0.90805290  0.30967671     0.17200
O418        O  0.61784894  0.89469582  0.29348419    -0.59800
H419        H  0.61756793  0.90908552  0.27417694     0.44200
H420        H  0.65497749  0.99488836  0.38998673     0.44100
C421        C  0.82550263  0.01618010  0.23651483    -0.04900
C422        C  0.79562928  0.02474744  0.25020686    -0.32300
C423        C  0.78729829  0.01520159  0.28195536     0.36900
C424        C  0.80913225  0.99693413  0.30096153    -0.05300
C425        C  0.83997745  0.99076305  0.28821009    -0.32200
C426        C  0.84821947  0.00010585  0.25643249     0.36800
H427        H  0.77787270  0.03736896  0.23567594     0.17200
O428        O  0.75707329  0.02252700  0.29344120    -0.59700
H429        H  0.85737940  0.97720550  0.30232824     0.17200
O430        O  0.87844310  0.99277458  0.24493069    -0.59800
H431        H  0.87739808  0.96945608  0.23878518     0.44200
H432        H  0.74273915  0.00502593  0.28501478     0.44100
C433        C  0.85163574  0.92305024  0.10030584    -0.04900
C434        C  0.82710068  0.90036749  0.10703135    -0.32300
C435        C  0.83142081  0.86736191  0.10024430     0.36900
C436        C  0.86087573  0.85648749  0.08685520    -0.05300
C437        C  0.88462352  0.87939978  0.07843703    -0.32200
C438        C  0.88019369  0.91239061  0.08488767     0.36800
H439        H  0.80475861  0.90805151  0.11835484     0.17200
O440        O  0.80714805  0.84589828  0.10800965    -0.59700
H441        H  0.90730321  0.87167635  0.06784289     0.17200
O442        O  0.90464271  0.93371107  0.07727850    -0.59800
H443        H  0.90077099  0.93985129  0.05430923     0.44200
H444        H  0.79269785  0.84556918  0.08878038     0.44100
C445        C  0.74995214  0.96738652  0.55248020    -0.04900
C446        C  0.76595896  0.99080962  0.53329730    -0.32300
C447        C  0.77452115  0.98437577  0.50086987     0.36900
C448        C  0.76709306  0.95399751  0.48665836    -0.05300
C449        C  0.75279781  0.92991795  0.50640754    -0.32200
C450        C  0.74436092  0.93631506  0.53892147     0.36800
H451        H  0.77054967  0.01493405  0.54293636     0.17200
O452        O  0.78809371  0.00883363  0.48275047    -0.59700
H453        H  0.74689462  0.90628847  0.49626441     0.17200
O454        O  0.72858530  0.91268282  0.55634312    -0.59800
H455        H  0.74594442  0.89972492  0.56656867     0.44200
H456        H  0.81165967  0.00727404  0.48672866     0.44100
C457        C  0.67496825  0.17069225  0.59770657    -0.04900
C458        C  0.70065328  0.16179731  0.61810634    -0.32300
C459        C  0.70670868  0.12914940  0.62493939     0.36900
C460        C  0.68644606  0.10482112  0.61184229    -0.05300
C461        C  0.66153930  0.11366559  0.59051408    -0.32200
C462        C  0.65590222  0.14621840  0.58314467     0.36800
H463        H  0.71580101  0.18023038  0.62933849     0.17200
O464        O  0.73138089  0.12152453  0.64576481    -0.59700
H465        H  0.64597991  0.09527977  0.57978134     0.17200
O466        O  0.63062868  0.15378433  0.56303885    -0.59800
H467        H  0.63974110  0.15309972  0.54073566     0.44200
H468        H  0.75092760  0.12019799  0.63186996     0.44100
C469        C  0.73691998  0.69915845  0.01362774    -0.04900
C470        C  0.75374128  0.72481627  0.99860937    -0.32300
C471        C  0.78596500  0.73210633  0.00699037     0.36900
C472        C  0.80214518  0.71369325  0.03093006    -0.05300
C473        C  0.78597405  0.68676978  0.04435067    -0.32200
C474        C  0.75389892  0.67940163  0.03590995     0.36800
H475        H  0.74150818  0.74015998  0.98121223     0.17200
O476        O  0.80076084  0.75837212  0.99276664    -0.59700
H477        H  0.79769460  0.67208658  0.06266870     0.17200
O478        O  0.73906762  0.65342071  0.05064380    -0.59800
H479        H  0.74427466  0.63441582  0.03674864     0.44200
H480        H  0.81007026  0.74991381  0.97221404     0.44100
C481        C  0.53008988  0.72931366  0.30597306    -0.04900
C482        C  0.51120214  0.74713218  0.28386595    -0.32300
C483        C  0.50098535  0.77886534  0.29111813     0.36900
C484        C  0.50922415  0.79335454  0.32114089    -0.05300
C485        C  0.52609033  0.77460269  0.34408071    -0.32200
C486        C  0.53641227  0.74300458  0.33679594     0.36800
H487        H  0.50581685  0.73720898  0.26003535     0.17200
O488        O  0.48435664  0.79593996  0.26800306    -0.59700
H489        H  0.53255370  0.78493997  0.36746200     0.17200
O490        O  0.55433140  0.72658242  0.35939596    -0.59800
H491        H  0.53835998  0.71405888  0.37235472     0.44200
H492        H  0.50119928  0.80617216  0.25416950     0.44100
C493        C  0.58326667  0.67552089  0.16564189    -0.04900
C494        C  0.56869559  0.65435668  0.14317024    -0.32300
C495        C  0.57343981  0.65863138  0.10984377     0.36900
C496        C  0.59307573  0.68446070  0.09863433    -0.05300
C497        C  0.60484974  0.70743228  0.12099825    -0.32200
C498        C  0.60007082  0.70315977  0.15427370     0.36800
H499        H  0.55518586  0.63329268  0.15142241     0.17200
O500        O  0.56067823  0.63607885  0.08875675    -0.59700
H501        H  0.61936444  0.72786622  0.11288450     0.17200
O502        O  0.61346185  0.72525992  0.17543554    -0.59800
H503        H  0.59552917  0.73995710  0.18152779     0.44200
H504        H  0.53852366  0.64379271  0.08401883     0.44100
C505        C  0.48449932  0.75485025  0.94677564    -0.04900
C506        C  0.49935313  0.76662176  0.97519285    -0.32300
C507        C  0.53153728  0.75883083  0.98265817     0.36900
C508        C  0.54969595  0.73854680  0.96170641    -0.05300
C509        C  0.53548778  0.72857950  0.93227650    -0.32200
C510        C  0.50345439  0.73666195  0.92464435     0.36800
H511        H  0.48559949  0.78090382  0.99244293     0.17200
O512        O  0.54418520  0.76959332  0.01157590    -0.59700
H513        H  0.54876807  0.71319693  0.91560518     0.17200
O514        O  0.49057270  0.72527534  0.89605186    -0.59800
H515        H  0.49574638  0.74219578  0.87969184     0.44200
H516        H  0.55504980  0.79048583  0.00634466     0.44100
C517        C  0.33960684  0.59530636  0.91736778    -0.04900
C518        C  0.32534790  0.61779698  0.89634689    -0.32300
C519        C  0.33053012  0.65106291  0.90054109     0.36900
C520        C  0.34973512  0.66240079  0.92662794    -0.05300
C521        C  0.36227805  0.63996640  0.94885222    -0.32200
C522        C  0.35761030  0.60663416  0.94425988     0.36800
H523        H  0.31130441  0.60960138  0.87562670     0.17200
O524        O  0.31723854  0.67211950  0.87852801    -0.59700
H525        H  0.37680988  0.64813794  0.96923272     0.17200
O526        O  0.37103390  0.58542077  0.96603918    -0.59800
H527        H  0.39385907  0.58305233  0.95908688     0.44200
H528        H  0.33245004  0.67246687  0.85987390     0.44100
C529        C  0.05263771  0.77719605  0.04838318    -0.04900
C530        C  0.03312465  0.76249121  0.02436575    -0.32300
C531        C  0.00177347  0.75127395  0.03153582     0.36900
C532        C  0.98924477  0.75439496  0.06330973    -0.05300
C533        C  0.00996619  0.76613775  0.08791085    -0.32200
C534        C  0.04121755  0.77758503  0.08069660     0.36800
H535        H  0.04143384  0.76127372  0.99940506     0.17200
O536        O  0.98329656  0.73827672  0.00700728    -0.59700
H537        H  0.00128514  0.76837079  0.11266706     0.17200
O538        O  0.05968694  0.79055949  0.10524408    -0.59800
H539        H  0.05225011  0.81332040  0.10766751     0.44200
H540        H  0.97450807  0.75720994  0.99511182     0.44100
C541        C  0.23363628  0.82177393  0.00489321    -0.04900
C542        C  0.24676601  0.79229864  0.01574289    -0.32300
C543        C  0.27802859  0.78271046  0.00652539     0.36900
C544        C  0.29704860  0.80270535  0.98600612    -0.05300
C545        C  0.28447075  0.83284162  0.97646931    -0.32200
C546        C  0.25328854  0.84241819  0.98564105     0.36800
H547        H  0.23231919  0.77595608  0.03047645     0.17200
O548        O  0.28896772  0.75294287  0.01644019    -0.59700
H549        H  0.29833152  0.84863824  0.96061420     0.17200
O550        O  0.24182905  0.87144413  0.97423068    -0.59800
H551        H  0.24836693  0.88781377  0.99074483     0.44200
H552        H  0.30076597  0.75725477  0.03699660     0.44100
C553        C  0.10153098  0.86430781  0.84672304    -0.04900
C554        C  0.09085233  0.88816019  0.86855870    -0.32300
C555        C  0.09509192  0.88423257  0.90197580     0.36900
C556        C  0.10959877  0.85570826  0.91396018    -0.05300
C557        C  0.11900771  0.83131660  0.89207117    -0.32200
C558        C  0.11506827  0.83541729  0.85871292     0.36800
H559        H  0.08039207  0.91053224  0.85967422     0.17200
O560        O  0.08536052  0.90862024  0.92252132    -0.59700
H561        H  0.12998522  0.80911389  0.90072200     0.17200
O562        O  0.12504308  0.81123626  0.83804405    -0.59800
H563        H  0.10648035  0.79594675  0.83655196     0.44200
H564        H  0.10406320  0.92375168  0.92392640     0.44100
C565        C  0.04261301  0.80376196  0.70834102    -0.04900
C566        C  0.05051926  0.78896283  0.67861970    -0.32300
C567        C  0.03914124  0.75771634  0.67071686     0.36900
C568        C  0.01953622  0.74007388  0.69282756    -0.05300
C569        C  0.01000845  0.75563483  0.72173034    -0.32200
C570        C  0.02114085  0.78713212  0.72946542     0.36800
H571        H  0.06678620  0.80106485  0.66185384     0.17200
O572        O  0.04885648  0.74409912  0.64187763    -0.59700
H573        H  0.99476088  0.74294159  0.73901255     0.17200
O574        O  0.01203190  0.80067365  0.75854115    -0.59800
H575        H  0.99257876  0.81367528  0.75348063     0.44200
H576        H  0.03254613  0.75103378  0.62570370     0.44100
C577        C  0.30448781  0.53093416  0.72274166    -0.04900
C578        C  0.33583051  0.53514747  0.73519817    -0.32300
C579        C  0.34419571  0.52336571  0.76618385     0.36900
C580        C  0.32118908  0.50643499  0.78540331    -0.05300
C581        C  0.29039011  0.50077589  0.77208841    -0.32200
C582        C  0.28200825  0.51272730  0.74125506     0.36800
H583        H  0.35357071  0.54898303  0.72155764     0.17200
O584        O  0.37469174  0.52955488  0.77776689    -0.59700
H585        H  0.27223356  0.48787429  0.78607193     0.17200
O586        O  0.25131134  0.50718482  0.72991181    -0.59800
H587        H  0.25286356  0.48711923  0.71659181     0.44200
H588        H  0.37376121  0.55182839  0.78701734     0.44100
C589        C  0.16973867  0.59670529  0.65325194    -0.04900
C590        C  0.14703732  0.57212750  0.64634875    -0.32300
C591        C  0.11416483  0.57701885  0.65266335     0.36900
C592        C  0.10389239  0.60660482  0.66654193    -0.05300
C593        C  0.12668379  0.63069852  0.67403487    -0.32200
C594        C  0.15923839  0.62610198  0.66735169     0.36800
H595        H  0.15469020  0.54937284  0.63556832     0.17200
O596        O  0.09238492  0.55295418  0.64490886    -0.59700
H597        H  0.11917167  0.65373186  0.68433451     0.17200
O598        O  0.18052427  0.65079004  0.67450514    -0.59800
H599        H  0.18740358  0.64682137  0.69723872     0.44200
H600        H  0.08904148  0.54062432  0.66534077     0.44100
C601        C  0.95020349  0.49176857  0.75909970    -0.04900
C602        C  0.98066850  0.50517959  0.76630496    -0.32300
C603        C  0.98947351  0.53637222  0.75541188     0.36900
C604        C  0.96765356  0.55510671  0.73684334    -0.05300
C605        C  0.93644591  0.54261005  0.73157447    -0.32200
C606        C  0.92769935  0.51135839  0.74227202     0.36800
H607        H  0.99841751  0.49085140  0.77915141     0.17200
O608        O  0.02029696  0.54727766  0.76129407    -0.59700
H609        H  0.91913686  0.55638940  0.71755805     0.17200
O610        O  0.89739898  0.49983061  0.73491594    -0.59800
H611        H  0.89885448  0.49193623  0.71214520     0.44200
H612        H  0.01931483  0.55786685  0.78295978     0.44100
C613        C  0.73166645  0.30594661  0.52796699    -0.04900
C614        C  0.75300368  0.28165518  0.51702794    -0.32300
C615        C  0.78357653  0.28944084  0.50431611     0.36900
C616        C  0.79371090  0.32214860  0.50217223    -0.05300
C617        C  0.77173716  0.34655627  0.51141382    -0.32200
C618        C  0.74111734  0.33874014  0.52426846     0.36800
H619        H  0.74663990  0.25621597  0.51968132     0.17200
O620        O  0.80426757  0.26466680  0.49661300    -0.59700
H621        H  0.77879913  0.37191224  0.50994047     0.17200
O622        O  0.72105931  0.36338690  0.53388838    -0.59800
H623        H  0.72897487  0.37010485  0.55566690     0.44200
H624        H  0.79962258  0.25935851  0.47354597     0.44100
C625        C  0.91910815  0.35265969  0.59672588    -0.04900
C626        C  0.94002594  0.37764945  0.60711515    -0.32300
C627        C  0.94406553  0.38446084  0.64016815     0.36900
C628        C  0.92748881  0.36573376  0.66351025    -0.05300
C629        C  0.90715251  0.34031309  0.65314985    -0.32200
C630        C  0.90277636  0.33376042  0.62013277     0.36800
H631        H  0.95256538  0.39274021  0.58955829     0.17200
O632        O  0.96348198  0.41005688  0.64923364    -0.59700
H633        H  0.89427431  0.32553411  0.67072947     0.17200
O634        O  0.88253401  0.30878741  0.61113981    -0.59800
H635        H  0.86053106  0.31821645  0.61137672     0.44200
H636        H  0.94915990  0.42930956  0.64926137     0.44100
C637        C  0.08522601  0.99098593  0.75514000    -0.04900
C638        C  0.05762758  0.00690700  0.74334256    -0.32300
C639        C  0.04908492  0.03812253  0.75473219     0.36900
C640        C  0.06831982  0.05431334  0.77828977    -0.05300
C641        C  0.09686323  0.03919583  0.78850400    -0.32200
C642        C  0.10515097  0.00793067  0.77757213     0.36800
H643        H  0.04198180  0.99472694  0.72600431     0.17200
O644        O  0.02172619  0.05246879  0.74279096    -0.59700
H645        H  0.11194597  0.05077494  0.80673417     0.17200
O646        O  0.13202932  0.99353577  0.79051684    -0.59800
H647        H  0.12447000  0.98296857  0.81081131     0.44200
H648        H  0.00352682  0.04205406  0.75460436     0.44100
C649        C  0.98798472  0.30119554  0.80149879    -0.04900
C650        C  0.00393392  0.28201531  0.77804107    -0.32300
C651        C  0.01579762  0.25085505  0.78551455     0.36900
C652        C  0.01259668  0.23815299  0.81724120    -0.05300
C653        C  0.99747826  0.25774475  0.84091798    -0.32200
C654        C  0.98515945  0.28868099  0.83332389     0.36800
H655        H  0.00618647  0.29063538  0.75327001     0.17200
O656        O  0.02932573  0.23259849  0.76116753    -0.59700
H657        H  0.99437216  0.24870650  0.86544512     0.17200
O658        O  0.96986504  0.30613612  0.85719807    -0.59800
H659        H  0.94725887  0.29798953  0.85726132     0.44200
H660        H  0.01085146  0.22173970  0.75016722     0.44100
C661        C  0.72693933  0.04319919  0.80391679    -0.04900
C662        C  0.75055614  0.02546662  0.78679484    -0.32300
C663        C  0.74419635  0.01214840  0.75590698     0.36900
C664        C  0.71367278  0.01632230  0.74129267    -0.05300
C665        C  0.68941713  0.03207073  0.75943504    -0.32200
C666        C  0.69584074  0.04559938  0.79019143     0.36800
H667        H  0.77465564  0.02303201  0.79672659     0.17200
O668        O  0.76861070  0.99667900  0.73960316    -0.59700
H669        H  0.66561132  0.03542993  0.74909123     0.17200
O670        O  0.67178025  0.06216661  0.80595680    -0.59800
H671        H  0.67261499  0.08451926  0.79698951     0.44200
H672        H  0.76841124  0.97410352  0.74800588     0.44100
C673        C  0.76618535  0.08707757  0.99024170    -0.04900
C674        C  0.75594332  0.05714276  0.00306807    -0.32300
C675        C  0.76502648  0.04739487  0.03440943     0.36900
C676        C  0.78505520  0.06755662  0.05381951    -0.05300
C677        C  0.79342223  0.09848005  0.04190293    -0.32200
C678        C  0.78424225  0.10829071  0.01053379     0.36800
H679        H  0.74191538  0.04046640  0.98822881     0.17200
O680        O  0.75577488  0.01711894  0.04486917    -0.59700
H681        H  0.80860673  0.11456473  0.05624057     0.17200
O682        O  0.79412306  0.13824292  0.99964878    -0.59800
H683        H  0.81649414  0.13505835  0.99162876     0.44200
H684        H  0.73576297  0.02070905  0.05762289     0.44100
C685        C  0.86164711  0.10530617  0.85906742    -0.04900
C686        C  0.87244504  0.12557993  0.83382160    -0.32300
C687        C  0.90537578  0.12899669  0.82715360     0.36900
C688        C  0.92813001  0.11199251  0.84597222    -0.05300
C689        C  0.91722071  0.09047680  0.87007881    -0.32200
C690        C  0.88432525  0.08703487  0.87671396     0.36800
H691        H  0.85536376  0.13947333  0.81962884     0.17200
O692        O  0.91496170  0.14969087  0.80282969    -0.59700
H693        H  0.93429598  0.07689611  0.88458065     0.17200
O694        O  0.87479827  0.06645613  0.90114347    -0.59800
H695        H  0.87601197  0.07963594  0.92134635     0.44200
H696        H  0.91657804  0.17142196  0.81323859     0.44100
C697        C  0.44393880  0.04187719  0.26110046    -0.04900
C698        C  0.47212701  0.02693522  0.24943588    -0.32300
C699        C  0.48061395  0.99542340  0.25935449     0.36900
C700        C  0.46110226  0.97826989  0.28187922    -0.05300
C701        C  0.43167187  0.99216097  0.29141455    -0.32200
C702        C  0.42301306  0.02347833  0.28127849     0.36800
H703        H  0.48840530  0.04019030  0.23357764     0.17200
O704        O  0.50905111  0.98252288  0.24827003    -0.59700
H705        H  0.41593317  0.97942856  0.30822452     0.17200
O706        O  0.39450050  0.03624100  0.29237884    -0.59800
H707        H  0.39944171  0.04497258  0.31434170     0.44200
H708        H  0.50308027  0.96994100  0.22854232     0.44100
C709        C  0.54603626  0.25705001  0.57404444    -0.04900
C710        C  0.53125084  0.26397980  0.54417375    -0.32300
C711        C  0.50007710  0.25238742  0.53686047     0.36900
C712        C  0.48254057  0.23357915  0.55971850    -0.05300
C713        C  0.49686172  0.22764270  0.59009691    -0.32200
C714        C  0.52811299  0.23916220  0.59737750     0.36800
H715        H  0.54431395  0.27759652  0.52582541     0.17200
O716        O  0.48740816  0.25898753  0.50680645    -0.59700
H717        H  0.48428034  0.21298240  0.60797936     0.17200
O718        O  0.54151250  0.23104940  0.62673327    -0.59800
H719        H  0.53402137  0.24799083  0.64214642     0.44200
H720        H  0.49620147  0.24197328  0.49218494     0.44100
C721        C  0.42201876  0.16804270  0.35665419    -0.04900
C722        C  0.44412155  0.15318189  0.37765509    -0.32300
C723        C  0.44205227  0.15767996  0.41118280     0.36900
C724        C  0.41755262  0.17737486  0.42433946    -0.05300
C725        C  0.39630206  0.19345915  0.40335042    -0.32200
C726        C  0.39811344  0.18864008  0.36973781     0.36800
H727        H  0.46277882  0.13740162  0.36816929     0.17200
O728        O  0.46368419  0.14204549  0.43087726    -0.59700
H729        H  0.37732724  0.20872759  0.41304961     0.17200
O730        O  0.37635020  0.20409507  0.35003945    -0.59800
H731        H  0.35668537  0.19019292  0.35036505     0.44200
H732        H  0.48245991  0.15703893  0.43261662     0.44100
C733        C  0.29206982  0.19485515  0.52198733    -0.04900
C734        C  0.27820366  0.22437381  0.53207653    -0.32300
C735        C  0.24676104  0.23313904  0.52228013     0.36900
C736        C  0.22822737  0.21214866  0.50219512    -0.05300
C737        C  0.24127800  0.18175162  0.49409493    -0.32200
C738        C  0.27263216  0.17308621  0.50362919     0.36800
H739        H  0.29227401  0.24145535  0.54640271     0.17200
O740        O  0.23475136  0.26265072  0.53190001    -0.59700
H741        H  0.22782838  0.16514316  0.47864598     0.17200
O742        O  0.28462015  0.14391184  0.49302695    -0.59800
H743        H  0.27787312  0.12788356  0.50970821     0.44200
H744        H  0.24425253  0.27871220  0.51663705     0.44100
C745        C  0.98053743  0.28885771  0.45987153    -0.04900
C746        C  0.99333898  0.26476710  0.48044406    -0.32300
C747        C  0.02499002  0.25298529  0.47622527     0.36900
C748        C  0.04463429  0.26493850  0.45083530    -0.05300
C749        C  0.03110436  0.28767359  0.42921839    -0.32200
C750        C  0.99968800  0.29968015  0.43359302     0.36800
H751        H  0.97925464  0.25589286  0.50081561     0.17200
O752        O  0.03658038  0.23026587  0.49749879    -0.59700
H753        H  0.04536427  0.29724670  0.40928680     0.17200
O754        O  0.98841822  0.32274098  0.41246620    -0.59800
H755        H  0.99706994  0.34373751  0.42071597     0.44200
H756        H  0.04429061  0.24287280  0.51659617     0.44100
C757        C  0.23717525  0.54492897  0.47059828    -0.04900
C758        C  0.24309344  0.57741023  0.47941381    -0.32300
C759        C  0.25624315  0.58549402  0.50988999     0.36900
C760        C  0.26375557  0.56090485  0.53264110    -0.05300
C761        C  0.25950120  0.52831759  0.52313197    -0.32200
C762        C  0.24621385  0.52022284  0.49268890     0.36800
H763        H  0.23642016  0.59684068  0.46305265     0.17200
O764        O  0.25966892  0.61772250  0.51781664    -0.59700
H765        H  0.26493324  0.50891702  0.53999873     0.17200
O766        O  0.24079163  0.48804697  0.48555957    -0.59800
H767        H  0.21956565  0.48277578  0.49552075     0.44200
H768        H  0.28172647  0.62376709  0.51049521     0.44100
C769        C  0.17185442  0.41637190  0.40847088    -0.04900
C770        C  0.15162914  0.40594510  0.43384938    -0.32300
C771        C  0.14957855  0.37318020  0.44219763     0.36900
C772        C  0.16780994  0.35007614  0.42489939    -0.05300
C773        C  0.18816083  0.36043698  0.39960256    -0.32200
C774        C  0.19044956  0.39330804  0.39144338     0.36800
H775        H  0.13704250  0.42320851  0.44723084     0.17200
O776        O  0.12829894  0.36388998  0.46607037    -0.59700
H777        H  0.20214515  0.34296757  0.38583211     0.17200
O778        O  0.21002777  0.40235082  0.36606908    -0.59800
H779        H  0.23185239  0.40500362  0.37569678     0.44200
H780        H  0.13993981  0.36761799  0.48683156     0.44100
C781        C  0.20989013  0.49523967  0.21732628    -0.04900
C782        C  0.17825203  0.49096934  0.22898378    -0.32300
C783        C  0.16957230  0.50117372  0.26038372     0.36900
C784        C  0.19275486  0.51583375  0.28115023    -0.05300
C785        C  0.22336529  0.52316403  0.26828037    -0.32200
C786        C  0.23203094  0.51304768  0.23676957     0.36800
H787        H  0.16059190  0.47785163  0.21451330     0.17200
O788        O  0.13878720  0.49484168  0.27108188    -0.59700
H789        H  0.24137996  0.53509523  0.28331259     0.17200
O790        O  0.26265674  0.51969319  0.22575353    -0.59800
H791        H  0.27676059  0.50353448  0.23649191     0.44200
H792        H  0.12701824  0.51560153  0.26845850     0.44100
C793        C  0.25525657  0.44348796  0.03555264    -0.04900
C794        C  0.25199921  0.47502080  0.02315388    -0.32300
C795        C  0.26322598  0.48303912  0.99196324     0.36900
C796        C  0.27763718  0.45916889  0.97181540    -0.05300
C797        C  0.27865534  0.42700529  0.98325670    -0.32200
C798        C  0.26778364  0.41910408  0.01478048     0.36800
H799        H  0.24241120  0.49419026  0.03841522     0.17200
O800        O  0.26118370  0.51479394  0.98210367    -0.59700
H801        H  0.28922783  0.40811235  0.96832336     0.17200
O802        O  0.26983510  0.38750085  0.02511324    -0.59800
H803        H  0.29285887  0.38433077  0.03090438     0.44200
H804        H  0.28029346  0.52583952  0.99174905     0.44100
C805        C  0.51126401  0.29215220  0.20551199    -0.04900
C806        C  0.51232827  0.28100041  0.23769746    -0.32300
C807        C  0.50165175  0.24961286  0.24572803     0.36900
C808        C  0.48954976  0.22843880  0.22135622    -0.05300
C809        C  0.49049652  0.23883871  0.18888171    -0.32200
C810        C  0.50125133  0.27025910  0.18084857     0.36800
H811        H  0.51977767  0.29726027  0.25709771     0.17200
O812        O  0.50072488  0.24101708  0.27791255    -0.59700
H813        H  0.48166286  0.22304143  0.16968724     0.17200
O814        O  0.50120050  0.27948509  0.14880925    -0.59800
H815        H  0.47847375  0.28522437  0.14392534     0.44200
H816        H  0.52177689  0.23045962  0.28214686     0.44100
C817        C  0.55267373  0.47896557  0.24390210    -0.04900
C818        C  0.52989242  0.49818926  0.26046255    -0.32300
C819        C  0.53757089  0.52972314  0.27111362     0.36900
C820        C  0.56843591  0.54300023  0.26492983    -0.05300
C821        C  0.59209070  0.52273814  0.25104837    -0.32200
C822        C  0.58448073  0.49104438  0.24062703     0.36800
H823        H  0.50540521  0.48938274  0.26385711     0.17200
O824        O  0.51395091  0.54801166  0.28555245    -0.59700
H825        H  0.61625491  0.53200564  0.24666273     0.17200
O826        O  0.60800121  0.47274106  0.22600120    -0.59800
H827        H  0.60859970  0.48011732  0.20306422     0.44200
H828        H  0.51570319  0.54327091  0.30911549     0.44100
C829        C  0.41329312  0.41496357  0.18049604    -0.04900
C830        C  0.40275708  0.43982669  0.15978069    -0.32300
C831        C  0.37010070  0.44336375  0.15240301     0.36900
C832        C  0.34724245  0.42167232  0.16560619    -0.05300
C833        C  0.35755935  0.39715533  0.18684185    -0.32200
C834        C  0.39027379  0.39387584  0.19460465     0.36800
H835        H  0.41998347  0.45624511  0.14853260     0.17200
O836        O  0.36108155  0.46693205  0.13074665    -0.59700
H837        H  0.34024084  0.38035338  0.19737630     0.17200
O838        O  0.39951729  0.36904970  0.21469361    -0.59800
H839        H  0.39655993  0.37756911  0.23707724     0.44200
H840        H  0.35909972  0.48708979  0.14386497     0.44100
C841        C  0.35256626  0.81034409  0.76541633    -0.04900
C842        C  0.34502059  0.77913537  0.77675290    -0.32300
C843        C  0.35003848  0.77065740  0.80912857     0.36900
C844        C  0.36310556  0.79356674  0.83123690    -0.05300
C845        C  0.37092138  0.82484116  0.81995513    -0.32200
C846        C  0.36582577  0.83333576  0.78731010     0.36800
H847        H  0.33555700  0.76078720  0.76033425     0.17200
O848        O  0.34167899  0.73984192  0.81881951    -0.59700
H849        H  0.38081534  0.84287432  0.83647849     0.17200
O850        O  0.37243663  0.86453225  0.77752046    -0.59800
H851        H  0.39635070  0.86630173  0.77718280     0.44200
H852        H  0.36086620  0.72630140  0.81404988     0.44100
C853        C  0.20243425  0.86051742  0.71801325    -0.04900
C854        C  0.21421102  0.86330188  0.68606445    -0.32300
C855        C  0.24599504  0.85419333  0.67819623     0.36900
C856        C  0.26675129  0.84207576  0.70249319    -0.05300
C857        C  0.25496228  0.83924976  0.73434885    -0.32200
C858        C  0.22328225  0.84810252  0.74219707     0.36800
H859        H  0.19864003  0.87223221  0.66694839     0.17200
O860        O  0.25594569  0.85567430  0.64640675    -0.59700
H861        H  0.27053847  0.83053106  0.75356854     0.17200
O862        O  0.21328163  0.84503862  0.77386010    -0.59800
H863        H  0.20621084  0.82206246  0.77603587     0.44200
H864        H  0.25835138  0.87916863  0.64154054     0.44100
C865        C  0.32399142  0.74939389  0.67668779    -0.04900
C866        C  0.29174616  0.73938629  0.67984103    -0.32300
C867        C  0.28223055  0.70763521  0.67206217     0.36900
C868        C  0.30518716  0.68482211  0.66081948    -0.05300
C869        C  0.33766632  0.69466653  0.65828084    -0.32200
C870        C  0.34718465  0.72650994  0.66640025     0.36800
H871        H  0.27348800  0.75648092  0.68766386     0.17200
O872        O  0.25032102  0.69924072  0.67584421    -0.59700
H873        H  0.35583058  0.67759809  0.65019340     0.17200
O874        O  0.37928179  0.73479284  0.66469435    -0.59800
H875        H  0.38833375  0.72901507  0.68622863     0.44200
H876        H  0.23950801  0.70660953  0.65567236     0.44100
C877        C  0.46789333  0.92762836  0.50956928    -0.04900
C878        C  0.49938894  0.92745267  0.49729612    -0.32300
C879        C  0.50539797  0.92168697  0.46434155     0.36900
C880        C  0.47952036  0.91565599  0.44264388    -0.05300
C881        C  0.44783279  0.91568140  0.45495591    -0.32200
C882        C  0.44190434  0.92154230  0.48813497     0.36800
H883        H  0.51965558  0.93102888  0.51345529     0.17200
O884        O  0.53688169  0.92096352  0.45391093    -0.59700
H885        H  0.42755346  0.91143673  0.43882394     0.17200
O886        O  0.41061059  0.92264043  0.49909617    -0.59800
H887        H  0.40296731  0.89974142  0.49912737     0.44200
H888        H  0.54337309  0.94407904  0.45144102     0.44100
C889        C  0.53270494  0.95008415  0.60052301    -0.04900
C890        C  0.55415709  0.95929405  0.57558037    -0.32300
C891        C  0.58665895  0.96640633  0.58200447     0.36900
C892        C  0.59881671  0.96405414  0.61384246    -0.05300
C893        C  0.57802549  0.95407450  0.63879015    -0.32200
C894        C  0.54519143  0.94767989  0.63260242     0.36800
H895        H  0.54598314  0.96148697  0.55081453     0.17200
O896        O  0.60627176  0.97628227  0.55694902    -0.59700
H897        H  0.58678598  0.95308851  0.66359559     0.17200
O898        O  0.52519856  0.94206610  0.65861893    -0.59800
H899        H  0.53131821  0.92036341  0.66700000     0.44200
H900        H  0.61381546  0.95593940  0.54649664     0.44100
C901        C  0.44311046  0.01370270  0.57221491    -0.04900
C902        C  0.44273238  0.02347600  0.53960885    -0.32300
C903        C  0.43299219  0.05482830  0.53094685     0.36900
C904        C  0.42350831  0.07735888  0.55517803    -0.05300
C905        C  0.42454080  0.06767311  0.58791097    -0.32200
C906        C  0.43391010  0.03607913  0.59647728     0.36800
H907        H  0.44927743  0.00645206  0.52058594     0.17200
O908        O  0.43240260  0.06289103  0.49860453    -0.59700
H909        H  0.41785027  0.08454212  0.60699939     0.17200
O910        O  0.43499472  0.02760259  0.62869860    -0.59800
H911        H  0.41213168  0.02464766  0.63536341     0.44200
H912        H  0.45478587  0.06985792  0.49336442     0.44100
C913        C  0.42123081  0.90156105  0.62052026    -0.04900
C914        C  0.40058538  0.91395595  0.64470562    -0.32300
C915        C  0.38015875  0.89354222  0.66260892     0.36900
C916        C  0.37951446  0.85969807  0.65658762    -0.05300
C917        C  0.40238461  0.84698617  0.63464852    -0.32200
C918        C  0.42344379  0.86740809  0.61740895     0.36800
H919        H  0.40053995  0.93948213  0.65084001     0.17200
O920        O  0.36160223  0.90686017  0.68687327    -0.59700
H921        H  0.40518337  0.82114427  0.63130698     0.17200
O922        O  0.44615009  0.85356063  0.59747797    -0.59800
H923        H  0.46521950  0.84989779  0.61155985     0.44200
H924        H  0.34539271  0.92054157  0.67569722     0.44100
C925        C  0.67928275  0.32487190  0.75392143    -0.04900
C926        C  0.68435713  0.29286205  0.74362980    -0.32300
C927        C  0.67895472  0.28361984  0.71144487     0.36900
C928        C  0.66821277  0.30663408  0.68840926    -0.05300
C929        C  0.66302554  0.33880644  0.69866750    -0.32200
C930        C  0.66861384  0.34804889  0.73110414     0.36800
H931        H  0.69214779  0.27455702  0.76077355     0.17200
O932        O  0.68461214  0.25190270  0.70286303    -0.59700
H933        H  0.65486306  0.35691371  0.68149983     0.17200
O934        O  0.66417460  0.37986321  0.73998619    -0.59800
H935        H  0.68540792  0.39057851  0.73643823     0.44200
H936        H  0.66441586  0.24001253  0.70832679     0.44100
C937        C  0.76639416  0.35679118  0.81371353    -0.04900
C938        C  0.77765430  0.35055571  0.78218807    -0.32300
C939        C  0.80988155  0.35614156  0.77378171     0.36900
C940        C  0.83201815  0.36806721  0.79719554    -0.05300
C941        C  0.82071576  0.37466637  0.82876362    -0.32200
C942        C  0.78814648  0.36936969  0.83704925     0.36800
H943        H  0.76129009  0.34156542  0.76363424     0.17200
O944        O  0.81941244  0.34941933  0.74253188    -0.59700
H945        H  0.83714226  0.38386851  0.84715129     0.17200
O946        O  0.77824413  0.37512671  0.86836319    -0.59800
H947        H  0.77676795  0.39911734  0.87027892     0.44200
H948        H  0.81485215  0.36947738  0.73005563     0.44100
C949        C  0.70870538  0.26779305  0.84583743    -0.04900
C950        C  0.74132575  0.25909615  0.84527843    -0.32300
C951        C  0.75100191  0.22780090  0.85382682     0.36900
C952        C  0.72778971  0.20414853  0.86298694    -0.05300
C953        C  0.69501174  0.21295328  0.86366139    -0.32200
C954        C  0.68541718  0.24458239  0.85542602     0.36800
H955        H  0.75959299  0.27683959  0.83855949     0.17200
O956        O  0.78337761  0.22086558  0.85348855    -0.59700
H957        H  0.67671806  0.19527903  0.87042147     0.17200
O958        O  0.65317310  0.25212733  0.85537312    -0.59800
H959        H  0.64719287  0.25465433  0.87859905     0.44200
H960        H  0.78822748  0.21450889  0.83072816     0.44100
C961        C  0.59320261  0.51800009  0.95939114    -0.04900
C962        C  0.59255003  0.52882881  0.99169456    -0.32300
C963        C  0.60221063  0.56046560  0.99980867     0.36900
C964        C  0.61245293  0.58230660  0.97528446    -0.05300
C965        C  0.61302101  0.57145113  0.94290100    -0.32200
C966        C  0.60359821  0.53961401  0.93484926     0.36800
H967        H  0.58507588  0.51248555  0.01094325     0.17200
O968        O  0.60083033  0.56985675  0.03181226    -0.59700
H969        H  0.62036429  0.58779153  0.92361019     0.17200
O970        O  0.60299681  0.53041471  0.90275234    -0.59800
H971        H  0.62596625  0.52910494  0.89599223     0.44200
H972        H  0.62204518  0.56378787  0.04112792     0.44100
C973        C  0.50225883  0.45545279  0.93474718    -0.04900
C974        C  0.49051629  0.48722581  0.93623213    -0.32300
C975        C  0.45844448  0.49399520  0.92813179     0.36900
C976        C  0.43733298  0.46869441  0.91797629    -0.05300
C977        C  0.44879180  0.43662692  0.91796476    -0.32200
C978        C  0.48096235  0.42990368  0.92626290     0.36800
H979        H  0.50652002  0.50711521  0.94284376     0.17200
O980        O  0.44831736  0.52565673  0.92961817    -0.59700
H981        H  0.43290715  0.41669501  0.91124598     0.17200
O982        O  0.49112079  0.39821612  0.92709293    -0.59800
H983        H  0.49260608  0.39126395  0.90403057     0.44200
H984        H  0.44075184  0.52881056  0.95229430     0.44100
C985        C  0.56426387  0.42715644  0.01981800    -0.04900
C986        C  0.53171671  0.42611410  0.02903002    -0.32300
C987        C  0.52273270  0.41854714  0.06087656     0.36900
C988        C  0.54659708  0.41252855  0.08469424    -0.05300
C989        C  0.57928796  0.41300441  0.07526897    -0.32200
C990        C  0.58817887  0.42002176  0.04302531     0.36800
H991        H  0.51300182  0.43103181  0.01131395     0.17200
O992        O  0.49045412  0.41783855  0.06846946    -0.59700
H993        H  0.59805490  0.40844303  0.09299819     0.17200
O994        O  0.62028398  0.42165605  0.03488943    -0.59800
H995        H  0.62717857  0.39874961  0.03228151     0.44200
H996        H  0.48304298  0.39556831  0.06277082     0.44100
C997        C  0.61328760  0.40844169  0.90847468    -0.04900
C998        C  0.60073268  0.38750189  0.88439014    -0.32300
C999        C  0.62102612  0.37054200  0.86326898     0.36900
C1000       C  0.65488578  0.37494583  0.86481484    -0.05300
C1001       C  0.66746295  0.39330819  0.89086873    -0.32200
C1002       C  0.64716578  0.40974009  0.91250639     0.36800
H1003       H  0.57518731  0.38284523  0.88214888     0.17200
O1004       O  0.60726928  0.34915979  0.84160564    -0.59700
H1005       H  0.69314003  0.39433939  0.89550421     0.17200
O1006       O  0.66067383  0.42631470  0.93821094    -0.59800
H1007       H  0.67313944  0.44453139  0.92848489     0.44200
H1008       H  0.60705199  0.32787279  0.85287224     0.44100
C1009       C  0.79727662  0.83746752  0.35687190    -0.04900
C1010       C  0.82865782  0.82569086  0.36173748    -0.32300
C1011       C  0.83680969  0.79374346  0.35300871     0.36900
C1012       C  0.81331484  0.77284116  0.33908986    -0.05300
C1013       C  0.78211532  0.78484865  0.33384758    -0.32200
C1014       C  0.77399602  0.81665844  0.34251341     0.36800
H1015       H  0.84708232  0.84131131  0.37223134     0.17200
O1016       O  0.86818479  0.78382372  0.35669574    -0.59700
H1017       H  0.76350897  0.76933423  0.32355210     0.17200
O1018       O  0.74328733  0.82725746  0.33612026    -0.59800
H1019       H  0.73012469  0.82011082  0.35498082     0.44200
H1020       H  0.87175221  0.78251789  0.38051194     0.44100
C1021       C  0.84119607  0.71325369  0.24901382    -0.04900
C1022       C  0.84531780  0.74583540  0.24008211    -0.32300
C1023       C  0.85547540  0.75405835  0.20865752     0.36900
C1024       C  0.86105785  0.72941554  0.18526456    -0.05300
C1025       C  0.85601806  0.69681697  0.19416988    -0.32200
C1026       C  0.84632510  0.68866686  0.22577849     0.36800
H1027       H  0.84150771  0.76496722  0.25782973     0.17200
O1028       O  0.85984186  0.78627316  0.20121350    -0.59700
H1029       H  0.85944264  0.67750547  0.17656204     0.17200
O1030       O  0.84072200  0.65669131  0.23344685    -0.59800
H1031       H  0.86241267  0.64706183  0.23650349     0.44200
H1032       H  0.88276329  0.79103999  0.20650948     0.44100
C1033       C  0.75235608  0.68292058  0.30921501    -0.04900
C1034       C  0.73056643  0.67592337  0.33449202    -0.32300
C1035       C  0.69815267  0.66818402  0.32779219     0.36900
C1036       C  0.68708339  0.66734102  0.29532878    -0.05300
C1037       C  0.70927978  0.67356447  0.27014825    -0.32200
C1038       C  0.74153855  0.68132983  0.27685782     0.36800
H1039       H  0.73864550  0.67681344  0.35953735     0.17200
O1040       O  0.67752290  0.66206640  0.35318353    -0.59700
H1041       H  0.70169110  0.67242912  0.24496035     0.17200
O1042       O  0.76272387  0.68560446  0.25152672    -0.59800
H1043       H  0.75770806  0.70729866  0.24243150     0.44200
H1044       H  0.67884208  0.63829350  0.35686575     0.44100
C1045       C  0.95598902  0.60544352  0.51026382    -0.04900
C1046       C  0.98774455  0.60052914  0.52076291    -0.32300
C1047       C  0.99665484  0.60664411  0.55294822     0.36900
C1048       C  0.97361868  0.61827071  0.57554069    -0.05300
C1049       C  0.94186441  0.62362070  0.56492049    -0.32200
C1050       C  0.93295084  0.61731995  0.53257641     0.36800
H1051       H  0.00595466  0.59200369  0.50387803     0.17200
O1052       O  0.02818989  0.60161186  0.56179604    -0.59700
H1053       H  0.92371922  0.63224579  0.58181217     0.17200
O1054       O  0.90130855  0.62112840  0.52352482    -0.59800
H1055       H  0.89806167  0.64495256  0.52206706     0.44200
H1056       H  0.02974609  0.57795283  0.56608324     0.44100
C1057       C  0.92394158  0.51437433  0.45259974    -0.04900
C1058       C  0.91561497  0.49279841  0.42735935    -0.32300
C1059       C  0.91001933  0.45967815  0.43361126     0.36900
C1060       C  0.91252179  0.44765038  0.46560524    -0.05300
C1061       C  0.92074666  0.46945813  0.49075187    -0.32200
C1062       C  0.92657229  0.50239174  0.48447964     0.36800
H1063       H  0.91401729  0.50154818  0.40258914     0.17200
O1064       O  0.90294474  0.43926543  0.40815560    -0.59700
H1065       H  0.92259399  0.46105772  0.51562453     0.17200
O1066       O  0.93322871  0.52298872  0.50996506    -0.59800
H1067       H  0.95529801  0.51727678  0.51730957     0.44200
H1068       H  0.87918026  0.44055586  0.40545328     0.44100
C1069       C  0.01187398  0.57121377  0.41952398    -0.04900
C1070       C  0.03332215  0.59412659  0.40589143    -0.32300
C1071       C  0.06551343  0.58582717  0.39880685     0.36900
C1072       C  0.07685216  0.55429692  0.40573902    -0.05300
C1073       C  0.05509681  0.53138592  0.41864814    -0.32200
C1074       C  0.02300965  0.53936681  0.42503732     0.36800
H1075       H  0.02527250  0.61865598  0.40110278     0.17200
O1076       O  0.08556367  0.60875260  0.38529134    -0.59700
H1077       H  0.06284467  0.50678788  0.42364654     0.17200
O1078       O  0.00263139  0.51535871  0.43596450    -0.59800
H1079       H  0.99128707  0.50721028  0.41630568     0.44200
H1080       H  0.08426017  0.60497382  0.36149481     0.44100
C1081       C  0.90154009  0.62292680  0.40021508    -0.04900
C1082       C  0.87880853  0.64461183  0.41352873    -0.32300
C1083       C  0.85867626  0.66325645  0.39369492     0.36900
C1084       C  0.86120149  0.66120919  0.35949204    -0.05300
C1085       C  0.88107470  0.63675660  0.34636868    -0.32200
C1086       C  0.90072562  0.61761408  0.36629408     0.36800
H1087       H  0.87533356  0.64662760  0.43946521     0.17200
O1088       O  0.83554995  0.68235818  0.40805508    -0.59700
H1089       H  0.88095138  0.63140227  0.32064680     0.17200
O1090       O  0.91797361  0.59271861  0.35249891    -0.59800
H1091       H  0.93445945  0.60330022  0.33849535     0.44200
H1092       H  0.84752226  0.69894190  0.42091179     0.44100
C1093       C  0.00647400  0.06878121  0.09594483    -0.04900
C1094       C  0.99726825  0.05887798  0.12727940    -0.32300
C1095       C  0.96484260  0.05279767  0.13477112     0.36900
C1096       C  0.94096441  0.05665588  0.11074947    -0.05300
C1097       C  0.95018160  0.06639744  0.07933255    -0.32200
C1098       C  0.98265077  0.07266458  0.07190748     0.36800
H1099       H  0.01541221  0.05513858  0.14586169     0.17200
O1100       O  0.95703423  0.04101786  0.16496914    -0.59700
H1101       H  0.93212815  0.06922957  0.06049727     0.17200
O1102       O  0.99074931  0.08281009  0.04120369    -0.59800
H1103       H  0.99333383  0.10674054  0.04291941     0.44200
H1104       H  0.95484716  0.06051260  0.17901403     0.44100
C1105       C  0.09332099  0.00507860  0.06859742    -0.04900
C1106       C  0.12555834  0.99475433  0.06579201    -0.32300
C1107       C  0.13306355  0.96220346  0.05964796     0.36900
C1108       C  0.10814699  0.93916451  0.05535663    -0.05300
C1109       C  0.07587912  0.94928962  0.05850269    -0.32200
C1110       C  0.06835500  0.98185979  0.06532132     0.36800
H1111       H  0.14522979  0.01213176  0.06770450     0.17200
O1112       O  0.16483087  0.95363822  0.05593490    -0.59700
H1113       H  0.05633655  0.93187708  0.05562433     0.17200
O1114       O  0.03670922  0.99035413  0.07022588    -0.59800
H1115       H  0.02631580  0.98886934  0.04854061     0.44200
H1116       H  0.17320579  0.95098104  0.07835596     0.44100
C1117       C  0.07294179  0.09707422  0.00754492    -0.04900
C1118       C  0.07290852  0.12980534  0.99734991    -0.32300
C1119       C  0.06833151  0.13814851  0.96444098     0.36900
C1120       C  0.06309153  0.11367307  0.94091405    -0.05300
C1121       C  0.06382108  0.08104723  0.95097990    -0.32200
C1122       C  0.06914995  0.07265704  0.98360197     0.36800
H1123       H  0.07551513  0.14916640  0.01506946     0.17200
O1124       O  0.06682598  0.17032628  0.95599238    -0.59700
H1125       H  0.06019081  0.06175645  0.93333799     0.17200
O1126       O  0.07085892  0.04036179  0.99153309    -0.59800
H1127       H  0.09423647  0.03521794  0.99156662     0.44200
H1128       H  0.08963816  0.17750120  0.95381542     0.44100
C1129       C  0.26618276  0.18094198  0.20626283    -0.04900
C1130       C  0.28709015  0.20690393  0.21386161    -0.32300
C1131       C  0.31982823  0.20150664  0.22028473     0.36900
C1132       C  0.33259552  0.16993049  0.21773590    -0.05300
C1133       C  0.31218470  0.14418229  0.20876790    -0.32200
C1134       C  0.27916108  0.14924855  0.20388915     0.36800
H1135       H  0.27808798  0.23152038  0.21530155     0.17200
O1136       O  0.33922395  0.22733124  0.22876761    -0.59700
H1137       H  0.32146688  0.11962870  0.20751422     0.17200
O1138       O  0.25970910  0.12265973  0.19862923    -0.59800
H1139       H  0.25085746  0.11694589  0.22030689     0.44200
H1140       H  0.33528455  0.23083854  0.25231277     0.44100
C1141       C  0.18073673  0.19736461  0.27667514    -0.04900
C1142       C  0.14927354  0.20309721  0.28799687    -0.32300
C1143       C  0.14322915  0.20845506  0.32102825     0.36900
C1144       C  0.16888208  0.20840790  0.34345604    -0.05300
C1145       C  0.20029739  0.20176823  0.33237427    -0.32200
C1146       C  0.20630975  0.19601875  0.29922644     0.36800
H1147       H  0.12937756  0.20462674  0.27096905     0.17200
O1148       O  0.11255530  0.21639693  0.33072110    -0.59700
H1149       H  0.22026170  0.20140497  0.34940152     0.17200
O1150       O  0.23692797  0.18807585  0.28925558    -0.59800
H1151       H  0.24978132  0.20841902  0.29110886     0.44200
H1152       H  0.10157885  0.19530968  0.33481445     0.44100
C1153       C  0.21081940  0.33364008  0.17129849    -0.04900
C1154       C  0.20960531  0.32443394  0.20423607    -0.32300
C1155       C  0.20447753  0.29181916  0.21313768     0.36900
C1156       C  0.20068166  0.26785214  0.18888526    -0.05300
C1157       C  0.20246325  0.27720245  0.15604424    -0.32200
C1158       C  0.20700868  0.30961305  0.14719912     0.36800
H1159       H  0.21268486  0.34256569  0.22315974     0.17200
O1160       O  0.20191579  0.28392749  0.24543186    -0.59700
H1161       H  0.20079820  0.25917745  0.13686166     0.17200
O1162       O  0.20961787  0.31716014  0.11483119    -0.59800
H1163       H  0.18711987  0.32057899  0.10735303     0.44200
H1164       H  0.22417072  0.28569111  0.25422695     0.44100
C1165       C  0.15326536  0.15603414  0.16434894    -0.04900
C1166       C  0.12813725  0.16875752  0.14518437    -0.32300
C1167       C  0.10963900  0.14880967  0.12470495     0.36900
C1168       C  0.11567817  0.11512011  0.12273168    -0.05300
C1169       C  0.13867116  0.10201766  0.14428203    -0.32200
C1170       C  0.15702352  0.12195834  0.16494152     0.36800
H1171       H  0.12169314  0.19409056  0.14629067     0.17200
O1172       O  0.08477441  0.16239608  0.10744568    -0.59700
H1173       H  0.14243221  0.07624604  0.14636986     0.17200
O1174       O  0.17801865  0.10774143  0.18642674    -0.59800
H1175       H  0.19526467  0.09791126  0.17289456     0.44200
H1176       H  0.09523212  0.17522486  0.08993000     0.44100
loop_ 
_geom_bond_atom_site_label_1 
_geom_bond_atom_site_label_2 
_geom_bond_distance 
_geom_bond_site_symmetry_2 
_ccdc_geom_bond_type 
C1            C2   1.533       .  S
C1            C7   1.539       .  S
C1            C5   1.537       .  S
C1         C1165   1.532       .  S
C2            H9   1.086       .  S
C2            C3   1.365       .  D
C3            C4   1.541       .  S
C3         C1141   1.485       .  S
C4            C8   1.542       .  S
C4            C6   1.544       .  S
C4           H10   1.106       .  S
C5           H11   1.081       .  S
C5            C6   1.365       .  D
C6         C1156   1.490       .  S
C7           H12   1.084       .  S
C7            C8   1.368       .  D
C8         C1129   1.492       .  S
C13          C14   1.530       .  S
C13          C19   1.545       .  S
C13          C17   1.542       .  S
C13        C1168   1.534       .  S
C14          H21   1.087       .  S
C14          C15   1.361       .  D
C15          C16   1.540       .  S
C15        C1093   1.480       .  S
C16          C20   1.548       .  S
C16          C18   1.543       .  S
C16          H22   1.106       .  S
C17          H23   1.080       .  S
C17          C18   1.366       .  D
C18        C1105   1.491       .  S
C19          H24   1.085       .  S
C19          C20   1.371       .  D
C20        C1117   1.505       .  S
C25          C26   1.547       .  S
C25          C31   1.545       .  S
C25          C29   1.539       .  S
C25        C1081   1.532       .  S
C26          H33   1.085       .  S
C26          C27   1.369       .  D
C27          C28   1.539       .  S
C27        C1069   1.492   1_655  S
C28          C32   1.535       .  S
C28          C30   1.535       .  S
C28          H34   1.107       .  S
C29          H35   1.086       .  S
C29          C30   1.365       .  D
C30        C1057   1.486       .  S
C31          H36   1.082       .  S
C31          C32   1.362       .  D
C32        C1045   1.485       .  S
C37          C38   1.545       .  S
C37          C43   1.535       .  S
C37          C41   1.541       .  S
C37        C1084   1.531       .  S
C38          H45   1.084       .  S
C38          C39   1.363       .  D
C39          C40   1.534       .  S
C39        C1021   1.479       .  S
C40          C44   1.541       .  S
C40          C42   1.543       .  S
C40          H46   1.110       .  S
C41          H47   1.082       .  S
C41          C42   1.366       .  D
C42        C1012   1.492       .  S
C43          H48   1.086       .  S
C43          C44   1.365       .  D
C44        C1033   1.483       .  S
C49          C50   1.545       .  S
C49          C55   1.540       .  S
C49          C53   1.535       .  S
C49         C997   1.529       .  S
C50          H57   1.081       .  S
C50          C51   1.363       .  D
C51          C52   1.537       .  S
C51         C973   1.484       .  S
C52          C56   1.538       .  S
C52          C54   1.542       .  S
C52          H58   1.111       .  S
C53          H59   1.084       .  S
C53          C54   1.362       .  D
C54         C961   1.486       .  S
C55          H60   1.086       .  S
C55          C56   1.367       .  D
C56         C985   1.483   1_556  S
C61          C62   1.543       .  S
C61          C67   1.547       .  S
C61          C65   1.534       .  S
C61        C1000   1.525       .  S
C62          H69   1.085       .  S
C62          C63   1.366       .  D
C63          C64   1.539       .  S
C63         C925   1.485       .  S
C64          C68   1.537       .  S
C64          C66   1.535       .  S
C64          H70   1.110       .  S
C65          H71   1.086       .  S
C65          C66   1.360       .  D
C66         C949   1.482       .  S
C67          H72   1.083       .  S
C67          C68   1.367       .  D
C68         C937   1.488       .  S
C73          C74   1.534       .  S
C73          C79   1.538       .  S
C73          C77   1.545       .  S
C73         C913   1.532       .  S
C74          H81   1.083       .  S
C74          C75   1.371       .  D
C75          C76   1.552       .  S
C75         C889   1.507       .  S
C76          C80   1.544       .  S
C76          C78   1.538       .  S
C76          H82   1.108       .  S
C77          H83   1.083       .  S
C77          C78   1.364       .  D
C78         C901   1.487   1_565  S
C79          H84   1.085       .  S
C79          C80   1.363       .  D
C80         C877   1.487       .  S
C85          C86   1.535       .  S
C85          C91   1.543       .  S
C85          C89   1.546       .  S
C85         C916   1.531       .  S
C86          H93   1.085       .  S
C86          C87   1.364       .  D
C87          C88   1.540       .  S
C87         C841   1.486       .  S
C88          C92   1.539       .  S
C88          C90   1.540       .  S
C88          H94   1.109       .  S
C89          H95   1.082       .  S
C89          C90   1.367       .  D
C90         C865   1.489       .  S
C91          H96   1.084       .  S
C91          C92   1.366       .  D
C92         C856   1.493       .  S
O97         C100   1.265       .  A
O97        Cd102   2.415       .  S
C98         O107   1.269       .  A
C98         O103   1.261       .  A
C98         C988   1.487       .  S
O99         C105   1.268       .  A
O99        Cd102   2.519       .  S
C100        O108   1.267       .  A
C100        C829   1.475       .  S
C101        O106   1.269       .  A
C101        O104   1.260       .  A
C101        C805   1.490       .  S
Cd102       O109   2.463       .  S
Cd102       O108   2.464       .  S
Cd102       O107   2.515       .  S
Cd102       O103   2.424       .  S
Cd102       O106   2.521       .  S
Cd102       O104   2.446       .  S
C105        O109   1.263       .  A
C105        C817   1.492       .  S
O110        C113   1.262       .  A
O110       Cd115   2.455       .  S
C111        O120   1.265       .  A
C111        O116   1.264       .  A
C111        C832   1.471       .  S
O112        C118   1.271       .  A
O112       Cd115   2.530       .  S
C113        O121   1.268       .  A
C113       C1153   1.480       .  S
C114        O119   1.271       .  A
C114        O117   1.263       .  A
C114        C781   1.495       .  S
Cd115       O122   2.488       .  S
Cd115       O121   2.474       .  S
Cd115       O120   2.433       .  S
Cd115       O116   2.440       .  S
Cd115       O119   2.519       .  S
Cd115       O117   2.460       .  S
C118        O122   1.262       .  A
C118        C793   1.497       .  S
O123        C126   1.262       .  A
O123       Cd128   2.425       .  S
C124        O133   1.267       .  A
C124        O129   1.266       .  A
C124        C769   1.473       .  S
O125        C131   1.270       .  A
O125       Cd128   2.539       .  S
C126        O134   1.269       .  A
C126       C1072   1.487       .  S
C127        O132   1.270       .  A
C127        O130   1.261       .  A
C127        C757   1.496       .  S
Cd128       O135   2.457       .  S
Cd128       O134   2.523       .  S
Cd128       O133   2.443       .  S
Cd128       O129   2.415       .  S
Cd128       O132   2.529       .  S
Cd128       O130   2.476       .  S
C131        O135   1.261       .  A
C131        C784   1.495       .  S
O136        C139   1.263       .  A
O136       Cd141   2.455       .  S
C137        O146   1.266       .  A
C137        O142   1.265       .  A
C137        C772   1.470       .  S
O138        C144   1.273       .  A
O138       Cd141   2.565       .  S
C139        O147   1.268       .  A
C139       C1144   1.477       .  S
C140        O145   1.269       .  A
C140        O143   1.264       .  A
C140        C736   1.499       .  S
Cd141       O148   2.453       .  S
Cd141       O147   2.480       .  S
Cd141       O146   2.428       .  S
Cd141       O142   2.426       .  S
Cd141       O145   2.511       .  S
Cd141       O143   2.495       .  S
C144        O148   1.261       .  A
C144        C748   1.501       .  S
O149        C152   1.263       .  A
O149       Cd154   2.443       .  S
C150        O159   1.264       .  A
C150        O155   1.267       .  A
C150        C724   1.470       .  S
O151        C157   1.270       .  A
O151       Cd154   2.567       .  S
C152        O160   1.270       .  A
C152        C904   1.489       .  S
C153        O158   1.269       .  A
C153        O156   1.263       .  A
C153        C712   1.498       .  S
Cd154       O161   2.466       .  S
Cd154       O160   2.507       .  S
Cd154       O159   2.408       .  S
Cd154       O155   2.455       .  S
Cd154       O158   2.530       .  S
Cd154       O156   2.467       .  S
C157        O161   1.261       .  A
C157        C733   1.503       .  S
O162        C165   1.262       .  A
O162       Cd167   2.423       .  S
C163        O172   1.266       .  A
C163        O168   1.263       .  A
C163        C721   1.474       .  S
O164        C170   1.271       .  A
O164       Cd167   2.537       .  S
C165        O173   1.269       .  A
C165       C1132   1.474       .  S
C166        O171   1.269       .  A
C166        O169   1.262       .  A
C166        C808   1.491       .  S
Cd167       O174   2.452       .  S
Cd167       O173   2.482       .  S
Cd167       O172   2.437       .  S
Cd167       O168   2.440       .  S
Cd167       O171   2.515       .  S
Cd167       O169   2.451       .  S
C170        O174   1.262       .  A
C170        C697   1.496       .  S
O175        C178   1.266       .  A
O175       Cd180   2.442       .  S
C176        O185   1.270       .  A
C176        O181   1.262       .  A
C176        C952   1.487       .  S
O177        C183   1.269       .  A
O177       Cd180   2.524       .  S
C178        O186   1.265       .  A
C178        C685   1.473       .  S
C179        O184   1.268       .  A
C179        O182   1.261       .  A
C179        C673   1.495       .  S
Cd180       O187   2.464       .  S
Cd180       O186   2.432       .  S
Cd180       O185   2.510       .  S
Cd180       O181   2.421       .  S
Cd180       O184   2.520       .  S
Cd180       O182   2.477       .  S
C183        O187   1.262       .  A
C183        C661   1.495       .  S
O188        C191   1.264       .  A
O188       Cd193   2.427   1_655  S
C189        O198   1.271       .  A
C189        O194   1.263       .  A
C189       C1120   1.495       .  S
O190        C196   1.271       .  A
O190       Cd193   2.544       .  S
C191        O199   1.264       .  A
C191        C688   1.472       .  S
C192        O197   1.272       .  A
C192        O195   1.264       .  A
C192        C652   1.505       .  S
Cd193       O200   2.496       .  S
Cd193       O199   2.446   1_455  S
Cd193       O198   2.560       .  S
Cd193       O194   2.466       .  S
Cd193       O197   2.559       .  S
Cd193       O195   2.492       .  S
C196        O200   1.262       .  A
C196        C640   1.501       .  S
O201        C204   1.263       .  A
O201       Cd206   2.425       .  S
C202        O211   1.263       .  A
C202        O207   1.265       .  A
C202        C625   1.474       .  S
O203        C209   1.269       .  A
O203       Cd206   2.529       .  S
C204        O212   1.271       .  A
C204       C1060   1.488       .  S
C205        O210   1.264       .  A
C205        O208   1.268       .  A
C205        C745   1.498       .  S
Cd206       O213   2.477       .  S
Cd206       O212   2.514       .  S
Cd206       O211   2.431       .  S
Cd206       O207   2.447       .  S
Cd206       O210   2.494       .  S
Cd206       O208   2.507       .  S
C209        O213   1.262       .  A
C209        C616   1.496       .  S
O214        C217   1.264       .  A
O214       Cd219   2.415       .  S
C215        O224   1.271       .  A
C215        O220   1.262       .  A
C215        C940   1.487       .  S
O216        C222   1.263       .  A
O216       Cd219   2.494       .  S
C217        O225   1.267       .  A
C217        C628   1.473       .  S
C218        O223   1.270       .  A
C218        O221   1.260       .  A
C218        C601   1.498       .  S
Cd219       O226   2.536       .  S
Cd219       O225   2.467       .  S
Cd219       O224   2.518       .  S
Cd219       O220   2.411       .  S
Cd219       O223   2.543       .  S
Cd219       O221   2.469       .  S
C222        O226   1.269       .  A
C222        C649   1.504       .  S
O227        C230   1.262       .  A
O227       Cd232   2.390       .  S
C228        O237   1.272       .  A
C228        O233   1.262       .  A
C228        C868   1.490       .  S
O229        C235   1.270       .  A
O229       Cd232   2.538       .  S
C230        O238   1.267       .  A
C230        C589   1.471       .  S
C231        O236   1.267       .  A
C231        O234   1.262       .  A
C231        C760   1.497       .  S
Cd232       O239   2.464       .  S
Cd232       O238   2.482       .  S
Cd232       O237   2.522       .  S
Cd232       O233   2.423       .  S
Cd232       O236   2.524       .  S
Cd232       O234   2.483       .  S
C235        O239   1.262       .  A
C235        C577   1.496       .  S
O240        C243   1.260   1_455  A
O240       Cd245   2.404       .  S
C241        O250   1.267       .  A
C241        O246   1.264       .  A
C241        C592   1.467       .  S
O242        C248   1.270   1_655  A
O242       Cd245   2.556   1_655  S
C243        O251   1.271       .  A
C243       C1048   1.484       .  S
C244        O249   1.269       .  A
C244        O247   1.263   1_655  A
C244        C604   1.496       .  S
Cd245       O252   2.456       .  S
Cd245       O251   2.514   1_455  S
Cd245       O250   2.421       .  S
Cd245       O246   2.434       .  S
Cd245       O249   2.513   1_455  S
Cd245       O247   2.469       .  S
C248        O252   1.260       .  A
C248        C568   1.499       .  S
O253        C256   1.262       .  A
O253       Cd258   2.438       .  S
C254        O263   1.265       .  A
C254        O259   1.263       .  A
C254        C553   1.466       .  S
O255        C261   1.270       .  A
O255       Cd258   2.556       .  S
C256        O264   1.272       .  A
C256        C853   1.493       .  S
C257        O262   1.262       .  A
C257        O260   1.270       .  A
C257        C565   1.497       .  S
Cd258       O265   2.468       .  S
Cd258       O264   2.524       .  S
Cd258       O263   2.447       .  S
Cd258       O259   2.412       .  S
Cd258       O262   2.477       .  S
Cd258       O260   2.521       .  S
C261        O265   1.262       .  A
C261        C637   1.502       .  S
O266        C269   1.268       .  A
O266       Cd271   2.494       .  S
C267        O276   1.265       .  A
C267        O272   1.263       .  A
C267        C556   1.471       .  S
O268        C274   1.271       .  A
O268       Cd271   2.529       .  S
C269        O277   1.262       .  A
C269       C1108   1.483       .  S
C270        O275   1.263       .  A
C270        O273   1.270       .  A
C270        C529   1.494       .  S
Cd271       O278   2.455   1_554  S
Cd271       O277   2.455       .  S
Cd271       O276   2.426   1_554  S
Cd271       O272   2.426   1_554  S
Cd271       O275   2.459       .  S
Cd271       O273   2.507       .  S
C274        O278   1.262   1_554  A
C274        C541   1.495       .  S
O279        C282   1.263       .  A
O279       Cd284   2.416       .  S
C280        O289   1.272       .  A
C280        O285   1.261       .  A
C280        C976   1.488       .  S
O281        C287   1.271       .  A
O281       Cd284   2.545       .  S
C282        O290   1.267       .  A
C282        C517   1.471       .  S
C283        O288   1.269       .  A
C283        O286   1.262       .  A
C283        C580   1.501       .  S
Cd284       O291   2.441       .  S
Cd284       O290   2.444       .  S
Cd284       O289   2.520       .  S
Cd284       O285   2.414       .  S
Cd284       O288   2.534       .  S
Cd284       O286   2.494       .  S
C287        O291   1.261       .  A
C287        C796   1.498       .  S
O292        C295   1.263       .  A
O292       Cd297   2.404       .  S
C293        O302   1.261       .  A
C293        O298   1.270       .  A
C293        C844   1.482       .  S
O294        C300   1.268       .  A
O294       Cd297   2.499       .  S
C295        O303   1.269       .  A
C295        C520   1.473       .  S
C296        O301   1.270       .  A
C296        O299   1.261       .  A
C296        C505   1.496       .  S
Cd297       O304   2.480       .  S
Cd297       O303   2.452       .  S
Cd297       O302   2.400       .  S
Cd297       O298   2.505       .  S
Cd297       O301   2.539       .  S
Cd297       O299   2.462       .  S
C300        O304   1.263       .  A
C300        C544   1.494       .  S
O305        C308   1.264       .  A
O305       Cd310   2.422       .  S
C306        O315   1.269       .  A
C306        O311   1.265       .  A
C306       C1036   1.486       .  S
O307        C313   1.263       .  A
O307       Cd310   2.472       .  S
C308        O316   1.266       .  A
C308        C493   1.472       .  S
C309        O314   1.268       .  A
C309        O312   1.262       .  A
C309        C820   1.492       .  S
Cd310       O317   2.494       .  S
Cd310       O316   2.455       .  S
Cd310       O315   2.493       .  S
Cd310       O311   2.431       .  S
Cd310       O314   2.510       .  S
Cd310       O312   2.470       .  S
C313        O317   1.268       .  A
C313        C481   1.491       .  S
O318        C321   1.261   1_554  A
O318       Cd323   2.420       .  S
C319        O328   1.269       .  A
C319        O324   1.264       .  A
C319        C496   1.473       .  S
O320        C326   1.271   1_556  A
O320       Cd323   2.560   1_556  S
C321        O329   1.270       .  A
C321        C964   1.486       .  S
C322        O327   1.264       .  A
C322        O325   1.269       .  A
C322        C508   1.497       .  S
Cd323       O330   2.461       .  S
Cd323       O329   2.506   1_554  S
Cd323       O328   2.439       .  S
Cd323       O324   2.412       .  S
Cd323       O327   2.481   1_554  S
Cd323       O325   2.510   1_554  S
C326        O330   1.260       .  A
C326        C469   1.497       .  S
O331        C334   1.260       .  A
O331       Cd336   2.393       .  S
C332        O341   1.267       .  A
C332        O337   1.265       .  A
C332        C457   1.473       .  S
O333        C339   1.270       .  A
O333       Cd336   2.533       .  S
C334        O342   1.271       .  A
C334        C928   1.485       .  S
C335        O340   1.271       .  A
C335        O338   1.262       .  A
C335        C613   1.498       .  S
Cd336       O343   2.471       .  S
Cd336       O342   2.521       .  S
Cd336       O341   2.444       .  S
Cd336       O337   2.420       .  S
Cd336       O340   2.543       .  S
Cd336       O338   2.457       .  S
C339        O343   1.261       .  A
C339        C709   1.497       .  S
O344        C347   1.264       .  A
O344       Cd349   2.419       .  S
C345        O354   1.270       .  A
C345        O350   1.262   1_565  A
C345        C892   1.480       .  S
O346        C352   1.269       .  A
O346       Cd349   2.524   1_565  S
C347        O355   1.266       .  A
C347        C460   1.473       .  S
C348        O353   1.270   1_545  A
C348        O351   1.263       .  A
C348        C664   1.498       .  S
Cd349       O356   2.456       .  S
Cd349       O355   2.464       .  S
Cd349       O354   2.512   1_545  S
Cd349       O350   2.430       .  S
Cd349       O353   2.540   1_545  S
Cd349       O351   2.470       .  S
C352        O356   1.262   1_565  A
C352        C445   1.495       .  S
O357        C360   1.263       .  A
O357       Cd362   2.442       .  S
C358        O367   1.262       .  A
C358        O363   1.266       .  A
C358        C436   1.476       .  S
O359        C365   1.268       .  A
O359       Cd362   2.524       .  S
C360        O368   1.270       .  A
C360       C1024   1.485       .  S
C361        O366   1.264       .  A
C361        O364   1.268       .  A
C361        C472   1.495       .  S
Cd362       O369   2.487       .  S
Cd362       O368   2.483       .  S
Cd362       O367   2.432       .  S
Cd362       O363   2.463       .  S
Cd362       O366   2.480       .  S
Cd362       O364   2.497       .  S
C365        O369   1.264       .  A
C365        C532   1.497       .  S
O370        C373   1.261       .  A
O370       Cd375   2.417   1_565  S
C371        O380   1.267       .  A
C371        O376   1.262       .  A
C371       C1096   1.475       .  S
O372        C378   1.269       .  A
O372       Cd375   2.504       .  S
C373        O381   1.267       .  A
C373        C433   1.477       .  S
C374        O379   1.271       .  A
C374        O377   1.262       .  A
C374        C421   1.495       .  S
Cd375       O382   2.456       .  S
Cd375       O381   2.478   1_545  S
Cd375       O380   2.472       .  S
Cd375       O376   2.446       .  S
Cd375       O379   2.539       .  S
Cd375       O377   2.457       .  S
C378        O382   1.265       .  A
C378        C676   1.494       .  S
O383        C386   1.264       .  A
O383       Cd388   2.411       .  S
C384        O393   1.271       .  A
C384        O389   1.261       .  A
C384        C880   1.488       .  S
O385        C391   1.263       .  A
O385       Cd388   2.477       .  S
C386        O394   1.267       .  A
C386        C409   1.477       .  S
C387        O392   1.268       .  A
C387        O390   1.261       .  A
C387        C484   1.493       .  S
Cd388       O395   2.510       .  S
Cd388       O394   2.476       .  S
Cd388       O393   2.527       .  S
Cd388       O389   2.420       .  S
Cd388       O392   2.537       .  S
Cd388       O390   2.460       .  S
C391        O395   1.268       .  A
C391        C700   1.495       .  S
O396        C399   1.262       .  A
O396       Cd401   2.422       .  S
C397        O406   1.266       .  A
C397        O402   1.264       .  A
C397        C412   1.478       .  S
O398        C404   1.269       .  A
O398       Cd401   2.526       .  S
C399        O407   1.270       .  A
C399       C1009   1.486       .  S
C400        O405   1.268       .  A
C400        O403   1.263       .  A
C400        C424   1.494       .  S
Cd401       O408   2.478       .  S
Cd401       O407   2.504       .  S
Cd401       O406   2.448       .  S
Cd401       O402   2.442       .  S
Cd401       O405   2.503       .  S
Cd401       O403   2.474       .  S
C404        O408   1.262       .  A
C404        C448   1.496       .  S
C409        C410   1.405       .  A
C409        C414   1.409       .  A
C410        C411   1.394       .  A
C410        H415   1.084       .  S
C411        C412   1.408       .  A
C411        O416   1.371       .  S
C412        C413   1.407       .  A
C413        C414   1.400       .  A
C413        H417   1.083       .  S
C414        O418   1.372       .  S
O416        H420   0.992       .  S
O418        H419   0.992       .  S
C421        C422   1.405       .  A
C421        C426   1.415       .  A
C422        C423   1.406       .  A
C422        H427   1.083       .  S
C423        C424   1.416   1_545  A
C423        O428   1.372       .  S
C424        C425   1.404       .  A
C425        C426   1.404   1_565  A
C425        H429   1.083       .  S
C426        O430   1.372   1_545  S
O428        H432   0.992       .  S
O430        H431   0.992       .  S
C433        C434   1.403       .  A
C433        C438   1.412       .  A
C434        C435   1.398       .  A
C434        H439   1.083       .  S
C435        C436   1.412       .  A
C435        O440   1.372       .  S
C436        C437   1.402       .  A
C437        C438   1.395       .  A
C437        H441   1.084       .  S
C438        O442   1.372       .  S
O440        H444   0.992       .  S
O442        H443   0.992       .  S
C445        C446   1.409       .  A
C445        C450   1.411       .  A
C446        C447   1.404       .  A
C446        H451   1.083   1_565  S
C447        C448   1.410       .  A
C447        O452   1.371   1_565  S
C448        C449   1.410       .  A
C449        C450   1.406       .  A
C449        H453   1.083       .  S
C450        O454   1.371       .  S
O452        H456   0.992       .  S
O454        H455   0.992       .  S
C457        C458   1.405       .  A
C457        C462   1.408       .  A
C458        C459   1.397       .  A
C458        H463   1.084       .  S
C459        C460   1.408       .  A
C459        O464   1.371       .  S
C460        C461   1.404       .  A
C461        C462   1.395       .  A
C461        H465   1.084       .  S
C462        O466   1.372       .  S
O464        H468   0.992       .  S
O466        H467   0.992       .  S
C469        C470   1.405   1_554  A
C469        C474   1.416       .  A
C470        C471   1.408   1_556  A
C470        H475   1.083       .  S
C471        C472   1.415       .  A
C471        O476   1.371   1_554  S
C472        C473   1.405       .  A
C473        C474   1.404       .  A
C473        H477   1.084       .  S
C474        O478   1.372       .  S
O476        H480   0.992       .  S
O478        H479   0.992       .  S
C481        C482   1.409       .  A
C481        C486   1.410       .  A
C482        C483   1.406       .  A
C482        H487   1.083       .  S
C483        C484   1.411       .  A
C483        O488   1.371       .  S
C484        C485   1.408       .  A
C485        C486   1.402       .  A
C485        H489   1.083       .  S
C486        O490   1.371       .  S
O488        H492   0.992       .  S
O490        H491   0.992       .  S
C493        C494   1.402       .  A
C493        C498   1.410       .  A
C494        C495   1.396       .  A
C494        H499   1.084       .  S
C495        C496   1.412       .  A
C495        O500   1.372       .  S
C496        C497   1.402       .  A
C497        C498   1.394       .  A
C497        H501   1.084       .  S
C498        O502   1.372       .  S
O500        H504   0.992       .  S
O502        H503   0.992       .  S
C505        C506   1.404       .  A
C505        C510   1.416       .  A
C506        C507   1.406       .  A
C506        H511   1.083       .  S
C507        C508   1.416       .  A
C507        O512   1.371   1_556  S
C508        C509   1.405       .  A
C509        C510   1.405       .  A
C509        H513   1.083       .  S
C510        O514   1.372       .  S
O512        H516   0.992       .  S
O514        H515   0.992       .  S
C517        C518   1.401       .  A
C517        C522   1.410       .  A
C518        C519   1.394       .  A
C518        H523   1.084       .  S
C519        C520   1.412       .  A
C519        O524   1.372       .  S
C520        C521   1.403       .  A
C521        C522   1.396       .  A
C521        H525   1.083       .  S
C522        O526   1.372       .  S
O524        H528   0.992       .  S
O526        H527   0.992       .  S
C529        C530   1.409       .  A
C529        C534   1.410       .  A
C530        C531   1.406       .  A
C530        H535   1.083   1_554  S
C531        C532   1.411   1_455  A
C531        O536   1.372   1_455  S
C532        C533   1.409   1_655  A
C533        C534   1.406       .  A
C533        H537   1.083       .  S
C534        O538   1.372       .  S
O536        H540   0.992   1_554  S
O538        H539   0.992       .  S
C541        C542   1.406       .  A
C541        C546   1.416   1_554  A
C542        C543   1.406       .  A
C542        H547   1.083       .  S
C543        C544   1.415   1_554  A
C543        O548   1.371       .  S
C544        C545   1.404       .  A
C545        C546   1.403       .  A
C545        H549   1.083       .  S
C546        O550   1.371       .  S
O548        H552   0.992       .  S
O550        H551   0.992       .  S
C553        C554   1.401       .  A
C553        C558   1.407       .  A
C554        C555   1.395       .  A
C554        H559   1.084       .  S
C555        C556   1.411       .  A
C555        O560   1.372       .  S
C556        C557   1.403       .  A
C557        C558   1.392       .  A
C557        H561   1.083       .  S
C558        O562   1.372       .  S
O560        H564   0.992       .  S
O562        H563   0.992       .  S
C565        C566   1.403       .  A
C565        C570   1.417       .  A
C566        C567   1.404       .  A
C566        H571   1.083       .  S
C567        C568   1.417       .  A
C567        O572   1.371       .  S
C568        C569   1.406       .  A
C569        C570   1.408       .  A
C569        H573   1.083   1_455  S
C570        O574   1.371       .  S
O572        H576   0.992       .  S
O574        H575   0.992   1_455  S
C577        C578   1.405       .  A
C577        C582   1.414       .  A
C578        C579   1.409       .  A
C578        H583   1.083       .  S
C579        C580   1.418       .  A
C579        O584   1.372       .  S
C580        C581   1.406       .  A
C581        C582   1.406       .  A
C581        H585   1.083       .  S
C582        O586   1.371       .  S
O584        H588   0.992       .  S
O586        H587   0.992       .  S
C589        C590   1.405       .  A
C589        C594   1.410       .  A
C590        C591   1.401       .  A
C590        H595   1.084       .  S
C591        C592   1.411       .  A
C591        O596   1.372       .  S
C592        C593   1.398       .  A
C593        C594   1.389       .  A
C593        H597   1.084       .  S
C594        O598   1.372       .  S
O596        H600   0.992       .  S
O598        H599   0.992       .  S
C601        C602   1.405       .  A
C601        C606   1.417       .  A
C602        C603   1.406       .  A
C602        H607   1.083       .  S
C603        C604   1.416       .  A
C603        O608   1.371   1_655  S
C604        C605   1.404       .  A
C605        C606   1.405       .  A
C605        H609   1.083       .  S
C606        O610   1.372       .  S
O608        H612   0.992       .  S
O610        H611   0.992       .  S
C613        C614   1.410       .  A
C613        C618   1.411       .  A
C614        C615   1.404       .  A
C614        H619   1.083       .  S
C615        C616   1.410       .  A
C615        O620   1.371       .  S
C616        C617   1.410       .  A
C617        C618   1.409       .  A
C617        H621   1.083       .  S
C618        O622   1.371       .  S
O620        H624   0.991       .  S
O622        H623   0.992       .  S
C625        C626   1.406       .  A
C625        C630   1.409       .  A
C626        C627   1.397       .  A
C626        H631   1.084       .  S
C627        C628   1.408       .  A
C627        O632   1.372       .  S
C628        C629   1.404       .  A
C629        C630   1.395       .  A
C629        H633   1.084       .  S
C630        O634   1.372       .  S
O632        H636   0.992       .  S
O634        H635   0.992       .  S
C637        C638   1.407   1_565  A
C637        C642   1.417   1_565  A
C638        C639   1.412       .  A
C638        H643   1.083   1_545  S
C639        C640   1.417       .  A
C639        O644   1.372       .  S
C640        C641   1.403       .  A
C641        C642   1.406       .  A
C641        H645   1.083       .  S
C642        O646   1.372   1_545  S
O644        H648   0.992       .  S
O646        H647   0.992       .  S
C649        C650   1.411   1_655  A
C649        C654   1.412       .  A
C650        C651   1.410       .  A
C650        H655   1.083       .  S
C651        C652   1.413       .  A
C651        O656   1.371       .  S
C652        C653   1.411   1_455  A
C653        C654   1.410       .  A
C653        H657   1.083       .  S
C654        O658   1.371       .  S
O656        H660   0.992       .  S
O658        H659   0.992       .  S
C661        C662   1.410       .  A
C661        C666   1.410       .  A
C662        C663   1.406       .  A
C662        H667   1.083       .  S
C663        C664   1.411       .  A
C663        O668   1.371   1_545  S
C664        C665   1.410       .  A
C665        C666   1.405       .  A
C665        H669   1.083       .  S
C666        O670   1.372       .  S
O668        H672   0.992       .  S
O670        H671   0.992       .  S
C673        C674   1.404   1_556  A
C673        C678   1.416   1_556  A
C674        C675   1.403       .  A
C674        H679   1.083   1_554  S
C675        C676   1.415       .  A
C675        O680   1.371       .  S
C676        C677   1.406       .  A
C677        C678   1.406       .  A
C677        H681   1.083       .  S
C678        O682   1.372   1_554  S
O680        H684   0.992       .  S
O682        H683   0.992       .  S
C685        C686   1.405       .  A
C685        C690   1.409       .  A
C686        C687   1.396       .  A
C686        H691   1.084       .  S
C687        C688   1.410       .  A
C687        O692   1.372       .  S
C688        C689   1.403       .  A
C689        C690   1.395       .  A
C689        H693   1.084       .  S
C690        O694   1.372       .  S
O692        H696   0.992       .  S
O694        H695   0.992       .  S
C697        C698   1.405       .  A
C697        C702   1.416       .  A
C698        C699   1.407   1_545  A
C698        H703   1.083       .  S
C699        C700   1.416       .  A
C699        O704   1.371       .  S
C700        C701   1.404       .  A
C701        C702   1.404   1_565  A
C701        H705   1.083       .  S
C702        O706   1.372       .  S
O704        H708   0.992       .  S
O706        H707   0.992       .  S
C709        C710   1.403       .  A
C709        C714   1.417       .  A
C710        C711   1.405       .  A
C710        H715   1.083       .  S
C711        C712   1.416       .  A
C711        O716   1.371       .  S
C712        C713   1.406       .  A
C713        C714   1.407       .  A
C713        H717   1.083       .  S
C714        O718   1.372       .  S
O716        H720   0.992       .  S
O718        H719   0.992       .  S
C721        C722   1.402       .  A
C721        C726   1.412       .  A
C722        C723   1.393       .  A
C722        H727   1.083       .  S
C723        C724   1.408       .  A
C723        O728   1.372       .  S
C724        C725   1.403       .  A
C725        C726   1.398       .  A
C725        H729   1.084       .  S
C726        O730   1.372       .  S
O728        H732   0.992       .  S
O730        H731   0.992       .  S
C733        C734   1.407       .  A
C733        C738   1.417       .  A
C734        C735   1.412       .  A
C734        H739   1.083       .  S
C735        C736   1.416       .  A
C735        O740   1.372       .  S
C736        C737   1.404       .  A
C737        C738   1.404       .  A
C737        H741   1.083       .  S
C738        O742   1.371       .  S
O740        H744   0.992       .  S
O742        H743   0.992       .  S
C745        C746   1.411       .  A
C745        C750   1.411       .  A
C746        C747   1.410   1_655  A
C746        H751   1.083       .  S
C747        C748   1.411       .  A
C747        O752   1.371       .  S
C748        C749   1.411       .  A
C749        C750   1.405   1_455  A
C749        H753   1.083       .  S
C750        O754   1.372       .  S
O752        H756   0.992       .  S
O754        H755   0.992       .  S
C757        C758   1.404       .  A
C757        C762   1.417       .  A
C758        C759   1.405       .  A
C758        H763   1.083       .  S
C759        C760   1.416       .  A
C759        O764   1.371       .  S
C760        C761   1.405       .  A
C761        C762   1.406       .  A
C761        H765   1.083       .  S
C762        O766   1.372       .  S
O764        H768   0.992       .  S
O766        H767   0.992       .  S
C769        C770   1.404       .  A
C769        C774   1.410       .  A
C770        C771   1.394       .  A
C770        H775   1.084       .  S
C771        C772   1.408       .  A
C771        O776   1.372       .  S
C772        C773   1.404       .  A
C773        C774   1.397       .  A
C773        H777   1.084       .  S
C774        O778   1.372       .  S
O776        H780   0.992       .  S
O778        H779   0.992       .  S
C781        C782   1.404       .  A
C781        C786   1.416       .  A
C782        C783   1.404       .  A
C782        H787   1.083       .  S
C783        C784   1.416       .  A
C783        O788   1.371       .  S
C784        C785   1.404       .  A
C785        C786   1.407       .  A
C785        H789   1.083       .  S
C786        O790   1.372       .  S
O788        H792   0.992       .  S
O790        H791   0.992       .  S
C793        C794   1.402       .  A
C793        C798   1.416       .  A
C794        C795   1.403   1_554  A
C794        H799   1.083       .  S
C795        C796   1.417       .  A
C795        O800   1.372       .  S
C796        C797   1.406       .  A
C797        C798   1.410   1_556  A
C797        H801   1.083       .  S
C798        O802   1.372       .  S
O800        H804   0.992       .  S
O802        H803   0.992       .  S
C805        C806   1.403       .  A
C805        C810   1.415       .  A
C806        C807   1.402       .  A
C806        H811   1.083       .  S
C807        C808   1.416       .  A
C807        O812   1.371       .  S
C808        C809   1.404       .  A
C809        C810   1.405       .  A
C809        H813   1.083       .  S
C810        O814   1.372       .  S
O812        H816   0.992       .  S
O814        H815   0.992       .  S
C817        C818   1.408       .  A
C817        C822   1.411       .  A
C818        C819   1.403       .  A
C818        H823   1.083       .  S
C819        C820   1.410       .  A
C819        O824   1.371       .  S
C820        C821   1.409       .  A
C821        C822   1.405       .  A
C821        H825   1.083       .  S
C822        O826   1.372       .  S
O824        H828   0.992       .  S
O826        H827   0.992       .  S
C829        C830   1.404       .  A
C829        C834   1.410       .  A
C830        C831   1.394       .  A
C830        H835   1.083       .  S
C831        C832   1.406       .  A
C831        O836   1.372       .  S
C832        C833   1.404       .  A
C833        C834   1.399       .  A
C833        H837   1.084       .  S
C834        O838   1.372       .  S
O836        H840   0.992       .  S
O838        H839   0.992       .  S
C841        C842   1.400       .  A
C841        C846   1.413       .  A
C842        C843   1.393       .  A
C842        H847   1.083       .  S
C843        C844   1.413       .  A
C843        O848   1.372       .  S
C844        C845   1.405       .  A
C845        C846   1.404       .  A
C845        H849   1.083       .  S
C846        O850   1.372       .  S
O848        H852   0.992       .  S
O850        H851   0.992       .  S
C853        C854   1.406       .  A
C853        C858   1.415       .  A
C854        C855   1.407       .  A
C854        H859   1.083       .  S
C855        C856   1.412       .  A
C855        O860   1.372       .  S
C856        C857   1.402       .  A
C857        C858   1.400       .  A
C857        H861   1.083       .  S
C858        O862   1.372       .  S
O860        H864   0.992       .  S
O862        H863   0.992       .  S
C865        C866   1.400       .  A
C865        C870   1.412       .  A
C866        C867   1.398       .  A
C866        H871   1.083       .  S
C867        C868   1.416       .  A
C867        O872   1.372       .  S
C868        C869   1.406       .  A
C869        C870   1.405       .  A
C869        H873   1.083       .  S
C870        O874   1.371       .  S
O872        H876   0.992       .  S
O874        H875   0.992       .  S
C877        C878   1.398       .  A
C877        C882   1.412       .  A
C878        C879   1.398       .  A
C878        H883   1.080       .  S
C879        C880   1.415       .  A
C879        O884   1.372       .  S
C880        C881   1.406       .  A
C881        C882   1.407       .  A
C881        H885   1.083       .  S
C882        O886   1.372       .  S
O884        H888   0.992       .  S
O886        H887   0.992       .  S
C889        C890   1.407       .  A
C889        C894   1.421       .  A
C890        C891   1.400       .  A
C890        H895   1.078       .  S
C891        C892   1.407       .  A
C891        O896   1.372       .  S
C892        C893   1.399       .  A
C893        C894   1.406       .  A
C893        H897   1.084       .  S
C894        O898   1.371       .  S
O896        H900   0.992       .  S
O898        H899   0.992       .  S
C901        C902   1.401       .  A
C901        C906   1.409       .  A
C902        C903   1.401       .  A
C902        H907   1.084       .  S
C903        C904   1.416       .  A
C903        O908   1.372       .  S
C904        C905   1.406       .  A
C905        C906   1.404       .  A
C905        H909   1.083       .  S
C906        O910   1.372       .  S
O908        H912   0.992       .  S
O910        H911   0.992       .  S
C913        C914   1.407       .  A
C913        C918   1.414       .  A
C914        C915   1.399       .  A
C914        H919   1.079       .  S
C915        C916   1.413       .  A
C915        O920   1.374       .  S
C916        C917   1.409       .  A
C917        C918   1.401       .  A
C917        H921   1.078       .  S
C918        O922   1.372       .  S
O920        H924   0.992       .  S
O922        H923   0.992       .  S
C925        C926   1.399       .  A
C925        C930   1.412       .  A
C926        C927   1.394       .  A
C926        H931   1.084       .  S
C927        C928   1.415       .  A
C927        O932   1.372       .  S
C928        C929   1.406       .  A
C929        C930   1.405       .  A
C929        H933   1.083       .  S
C930        O934   1.371       .  S
O932        H936   0.992       .  S
O934        H935   0.992       .  S
C937        C938   1.401       .  A
C937        C942   1.411       .  A
C938        C939   1.396       .  A
C938        H943   1.083       .  S
C939        C940   1.414       .  A
C939        O944   1.372       .  S
C940        C941   1.406       .  A
C941        C942   1.406       .  A
C941        H945   1.083       .  S
C942        O946   1.371       .  S
O944        H948   0.992       .  S
O946        H947   0.992       .  S
C949        C950   1.399       .  A
C949        C954   1.409       .  A
C950        C951   1.396       .  A
C950        H955   1.084       .  S
C951        C952   1.415       .  A
C951        O956   1.372       .  S
C952        C953   1.406       .  A
C953        C954   1.405       .  A
C953        H957   1.083       .  S
C954        O958   1.372       .  S
O956        H960   0.992       .  S
O958        H959   0.992       .  S
C961        C962   1.400       .  A
C961        C966   1.412       .  A
C962        C963   1.399       .  A
C962        H967   1.084   1_556  S
C963        C964   1.416       .  A
C963        O968   1.372   1_556  S
C964        C965   1.404       .  A
C965        C966   1.403       .  A
C965        H969   1.083       .  S
C966        O970   1.372       .  S
O968        H972   0.992       .  S
O970        H971   0.992       .  S
C973        C974   1.398       .  A
C973        C978   1.411       .  A
C974        C975   1.399       .  A
C974        H979   1.084       .  S
C975        C976   1.417       .  A
C975        O980   1.372       .  S
C976        C977   1.404       .  A
C977        C978   1.404       .  A
C977        H981   1.083       .  S
C978        O982   1.372       .  S
O980        H984   0.992       .  S
O982        H983   0.992       .  S
C985        C986   1.400       .  A
C985        C990   1.408       .  A
C986        C987   1.397       .  A
C986        H991   1.084       .  S
C987        C988   1.415       .  A
C987        O992   1.372       .  S
C988        C989   1.407       .  A
C989        C990   1.406       .  A
C989        H993   1.083       .  S
C990        O994   1.371       .  S
O992        H996   0.992       .  S
O994        H995   0.992       .  S
C997        C998   1.408       .  A
C997       C1002   1.413       .  A
C998        C999   1.396       .  A
C998       H1003   1.077       .  S
C999       C1000   1.413       .  A
C999       O1004   1.372       .  S
C1000      C1001   1.408       .  A
C1001      C1002   1.399       .  A
C1001      H1005   1.080       .  S
C1002      O1006   1.374       .  S
O1004      H1008   0.992       .  S
O1006      H1007   0.992       .  S
C1009      C1010   1.404       .  A
C1009      C1014   1.414       .  A
C1010      C1011   1.404       .  A
C1010      H1015   1.083       .  S
C1011      C1012   1.414       .  A
C1011      O1016   1.372       .  S
C1012      C1013   1.402       .  A
C1013      C1014   1.398       .  A
C1013      H1017   1.083       .  S
C1014      O1018   1.372       .  S
O1016      H1020   0.992       .  S
O1018      H1019   0.992       .  S
C1021      C1022   1.400       .  A
C1021      C1026   1.406       .  A
C1022      C1023   1.400       .  A
C1022      H1027   1.084       .  S
C1023      C1024   1.415       .  A
C1023      O1028   1.372       .  S
C1024      C1025   1.405       .  A
C1025      C1026   1.401       .  A
C1025      H1029   1.083       .  S
C1026      O1030   1.372       .  S
O1028      H1032   0.992       .  S
O1030      H1031   0.992       .  S
C1033      C1034   1.405       .  A
C1033      C1038   1.405       .  A
C1034      C1035   1.404       .  A
C1034      H1039   1.084       .  S
C1035      C1036   1.412       .  A
C1035      O1040   1.371       .  S
C1036      C1037   1.407       .  A
C1037      C1038   1.398       .  A
C1037      H1041   1.083       .  S
C1038      O1042   1.372       .  S
O1040      H1044   0.992       .  S
O1042      H1043   0.992       .  S
C1045      C1046   1.400       .  A
C1045      C1050   1.411       .  A
C1046      C1047   1.396       .  A
C1046      H1051   1.084   1_655  S
C1047      C1048   1.415       .  A
C1047      O1052   1.372   1_655  S
C1048      C1049   1.404       .  A
C1049      C1050   1.404       .  A
C1049      H1053   1.083       .  S
C1050      O1054   1.372       .  S
O1052      H1056   0.992       .  S
O1054      H1055   0.992       .  S
C1057      C1058   1.406       .  A
C1057      C1062   1.406       .  A
C1058      C1059   1.405       .  A
C1058      H1063   1.083       .  S
C1059      C1060   1.411       .  A
C1059      O1064   1.371       .  S
C1060      C1061   1.408       .  A
C1061      C1062   1.399       .  A
C1061      H1065   1.083       .  S
C1062      O1066   1.373       .  S
O1064      H1068   0.992       .  S
O1066      H1067   0.992       .  S
C1069      C1070   1.408       .  A
C1069      C1074   1.410       .  A
C1070      C1071   1.407       .  A
C1070      H1075   1.083       .  S
C1071      C1072   1.412       .  A
C1071      O1076   1.371       .  S
C1072      C1073   1.405       .  A
C1073      C1074   1.395       .  A
C1073      H1077   1.083       .  S
C1074      O1078   1.371       .  S
O1076      H1080   0.992       .  S
O1078      H1079   0.992   1_455  S
C1081      C1082   1.410       .  A
C1081      C1086   1.412       .  A
C1082      C1083   1.400       .  A
C1082      H1087   1.079       .  S
C1083      C1084   1.413       .  A
C1083      O1088   1.374       .  S
C1084      C1085   1.409       .  A
C1085      C1086   1.402       .  A
C1085      H1089   1.080       .  S
C1086      O1090   1.373       .  S
O1088      H1092   0.992       .  S
O1090      H1091   0.992       .  S
C1093      C1094   1.404   1_455  A
C1093      C1098   1.407   1_455  A
C1094      C1095   1.398       .  A
C1094      H1099   1.084   1_655  S
C1095      C1096   1.408       .  A
C1095      O1100   1.372       .  S
C1096      C1097   1.406       .  A
C1097      C1098   1.400       .  A
C1097      H1101   1.084       .  S
C1098      O1102   1.372       .  S
O1100      H1104   0.992       .  S
O1102      H1103   0.992       .  S
C1105      C1106   1.407   1_545  A
C1105      C1110   1.409   1_545  A
C1106      C1107   1.399       .  A
C1106      H1111   1.083   1_565  S
C1107      C1108   1.407       .  A
C1107      O1112   1.372       .  S
C1108      C1109   1.407       .  A
C1109      C1110   1.405       .  A
C1109      H1113   1.084       .  S
C1110      O1114   1.372       .  S
O1112      H1116   0.992       .  S
O1114      H1115   0.992       .  S
C1117      C1118   1.411   1_554  A
C1117      C1122   1.413   1_554  A
C1118      C1119   1.410       .  A
C1118      H1123   1.083   1_556  S
C1119      C1120   1.410       .  A
C1119      O1124   1.371       .  S
C1120      C1121   1.406       .  A
C1121      C1122   1.404       .  A
C1121      H1125   1.084       .  S
C1122      O1126   1.371       .  S
O1124      H1128   0.992       .  S
O1126      H1127   0.992       .  S
C1129      C1130   1.405       .  A
C1129      C1134   1.416       .  A
C1130      C1131   1.400       .  A
C1130      H1135   1.082       .  S
C1131      C1132   1.409       .  A
C1131      O1136   1.372       .  S
C1132      C1133   1.400       .  A
C1133      C1134   1.398       .  A
C1133      H1137   1.084       .  S
C1134      O1138   1.371       .  S
O1136      H1140   0.992       .  S
O1138      H1139   0.992       .  S
C1141      C1142   1.404       .  A
C1141      C1146   1.409       .  A
C1142      C1143   1.398       .  A
C1142      H1147   1.084       .  S
C1143      C1144   1.407       .  A
C1143      O1148   1.371       .  S
C1144      C1145   1.406       .  A
C1145      C1146   1.405       .  A
C1145      H1149   1.084       .  S
C1146      O1150   1.373       .  S
O1148      H1152   0.992       .  S
O1150      H1151   0.992       .  S
C1153      C1154   1.408       .  A
C1153      C1158   1.406       .  A
C1154      C1155   1.406       .  A
C1154      H1159   1.083       .  S
C1155      C1156   1.409       .  A
C1155      O1160   1.372       .  S
C1156      C1157   1.407       .  A
C1157      C1158   1.394       .  A
C1157      H1161   1.083       .  S
C1158      O1162   1.372       .  S
O1160      H1164   0.992       .  S
O1162      H1163   0.992       .  S
C1165      C1166   1.409       .  A
C1165      C1170   1.411       .  A
C1166      C1167   1.399       .  A
C1166      H1171   1.078       .  S
C1167      C1168   1.412       .  A
C1167      O1172   1.373       .  S
C1168      C1169   1.411       .  A
C1169      C1170   1.400       .  A
C1169      H1173   1.076       .  S
C1170      O1174   1.374       .  S
O1172      H1176   0.992       .  S
O1174      H1175   0.992       .  S
